Version 4
SHEET 1 980 680
WIRE 256 112 96 112
WIRE 368 112 256 112
WIRE 432 112 368 112
WIRE 528 112 512 112
WIRE 96 128 96 112
WIRE 256 144 256 112
WIRE 368 144 368 112
WIRE 96 240 96 208
WIRE 256 240 256 208
WIRE 256 240 96 240
WIRE 368 240 368 224
WIRE 368 240 256 240
WIRE 528 240 368 240
FLAG 528 112 X
IOPIN 528 112 BiDir
FLAG 528 240 Y
IOPIN 528 240 BiDir
SYMBOL current 96 128 R0
WINDOW 123 0 0 Left 0
WINDOW 39 0 0 Left 0
SYMATTR InstName I1
SYMATTR Value {Iirr}
SYMBOL diode 272 208 R180
WINDOW 0 24 64 Left 2
WINDOW 3 24 0 Left 2
SYMATTR InstName D1
SYMATTR Value 1N4148
SYMBOL res 352 128 R0
SYMATTR InstName R1
SYMATTR Value {Rsh}
SYMBOL res 528 96 R90
WINDOW 0 0 56 VBottom 2
WINDOW 3 32 56 VTop 2
SYMATTR InstName R2
SYMATTR Value {Rseries}
TEXT 704 96 Left 2 !.param Iirr = 8
TEXT 704 120 Left 2 !.param Rsh = 500
TEXT 704 144 Left 2 !.param Rseries = 0.001
