Version 4
SHEET 1 880 680
WIRE 320 96 144 96
WIRE 144 208 144 192
WIRE 320 208 320 176
WIRE 320 208 144 208
FLAG 320 96 0
SYMBOL PV_Motif_Solar_Cell 144 144 R0
SYMATTR InstName X1
SYMBOL voltage 320 192 R180
WINDOW 0 24 96 Left 2
WINDOW 3 24 16 Left 2
WINDOW 123 0 0 Left 0
WINDOW 39 0 0 Left 0
SYMATTR InstName V1
SYMATTR Value 10
TEXT 104 216 Left 2 !.dc V1 0 0.9 0.001
