Version 4
SHEET 1 952 680
WIRE 336 96 80 96
WIRE 80 144 80 96
WIRE 336 144 336 96
WIRE 80 256 80 208
WIRE 192 256 80 256
WIRE 336 256 336 208
WIRE 336 256 272 256
WIRE 416 256 336 256
WIRE 336 288 336 256
WIRE 416 304 416 256
WIRE 336 384 336 352
WIRE 512 448 480 448
WIRE 656 464 576 464
WIRE 736 464 720 464
WIRE 752 464 736 464
WIRE 416 480 416 384
WIRE 512 480 416 480
WIRE 384 592 368 592
WIRE 480 592 480 448
WIRE 480 592 464 592
WIRE 576 592 480 592
WIRE 736 592 736 464
WIRE 736 592 656 592
WIRE 368 624 368 592
FLAG 544 432 +Vs
FLAG 544 496 0
FLAG 336 384 0
FLAG 368 624 0
FLAG 896 240 0
FLAG 896 176 +Vs
FLAG 752 464 Ipv
IOPIN 752 464 Out
SYMBOL res 176 272 R270
WINDOW 0 32 56 VTop 2
WINDOW 3 0 56 VBottom 2
SYMATTR InstName R1
SYMATTR Value 1k
SYMBOL OpAmps\\OP07 544 400 R0
SYMATTR InstName U1
SYMBOL diode 656 480 R270
WINDOW 0 32 32 VTop 2
WINDOW 3 0 32 VBottom 2
SYMATTR InstName D1
SYMATTR Value 1N4148
SYMBOL res 672 576 R90
WINDOW 0 0 56 VBottom 2
WINDOW 3 32 56 VTop 2
SYMATTR InstName R2
SYMATTR Value 3k
SYMBOL res 480 576 R90
WINDOW 0 0 56 VBottom 2
WINDOW 3 32 56 VTop 2
SYMATTR InstName R3
SYMATTR Value 1k
SYMBOL res 400 288 R0
SYMATTR InstName R4
SYMATTR Value 200
SYMBOL Misc\\cell 896 176 R0
WINDOW 123 0 0 Left 0
WINDOW 39 0 0 Left 0
SYMATTR InstName V1
SYMATTR Value 5
SYMBOL cap 320 144 R0
WINDOW 39 24 84 Left 2
SYMATTR InstName C1
SYMATTR Value 2.5m
SYMATTR SpiceLine IC =  0
SYMBOL zener 352 352 R180
WINDOW 0 24 64 Left 2
WINDOW 3 24 0 Left 2
SYMATTR InstName D2
SYMBOL Misc\\cell 80 144 R0
WINDOW 123 0 0 Left 0
WINDOW 39 0 0 Left 0
SYMATTR InstName V2
SYMATTR Value 0.25
TEXT 72 648 Left 2 !.tran 20
