Version 4
SHEET 1 880 680
WIRE 208 96 -160 96
WIRE 208 112 208 96
WIRE 144 176 -160 176
FLAG -160 96 0
SYMBOL PV_Motif 176 144 R0
SYMATTR InstName X1
SYMBOL voltage -160 192 R180
WINDOW 0 24 96 Left 2
WINDOW 3 24 16 Left 2
WINDOW 123 0 0 Left 0
WINDOW 39 0 0 Left 0
SYMATTR InstName V1
SYMATTR Value ""
TEXT 360 240 Left 2 !.dc V1 0 0.7 0.01
