.SUBCKT solarcell IF IB VF VB
*C:\Users\ASUS\Desktop\Semesters\Sem 8\BTP\Simulation\FV_MI_with_FEM\solarcell.asc
RF_f1_0 T1_0 T1_1 1.9884720197803916
RF_f1_1 T1_1 T1_2 1.5006769604495207
RF_f1_2 T1_2 T1_3 1.7796652751336923
RF_f1_3 T1_3 T1_4 1.602500484983767
RF_f1_4 T1_4 T1_5 1.8088705555052873
RF_f1_5 T1_5 T1_6 1.4013740072398357
RF_f1_6 T1_6 T1_7 1.5405999281240712
RF_f1_7 T1_7 T1_8 1.572620528493978
RF_f1_8 T1_8 T1_9 1.649387438732683
RF_f1_9 T1_9 T1_10 1.4846481269869423
RF_f2_0 T2_0 T2_1 2.050889886754568
RF_f2_1 T2_1 T2_2 1.9821988389237237
RF_f2_2 T2_2 T2_3 1.9986591381179206
RF_f2_3 T2_3 T2_4 1.5722881895057048
RF_f2_4 T2_4 T2_5 1.689254460704794
RF_f2_5 T2_5 T2_6 1.7810729480555998
RF_f2_6 T2_6 T2_7 1.4452707855985707
RF_f2_7 T2_7 T2_8 2.007414909190957
RF_f2_8 T2_8 T2_9 2.05062231431596
RF_f2_9 T2_9 T2_10 1.416924102203161
RF_f3_0 T3_0 T3_1 1.6054960209074547
RF_f3_1 T3_1 T3_2 1.6497269851566885
RF_f3_2 T3_2 T3_3 1.6733149015995086
RF_f3_3 T3_3 T3_4 1.6321101092088954
RF_f3_4 T3_4 T3_5 1.5242631795222767
RF_f3_5 T3_5 T3_6 1.7492595903713157
RF_f3_6 T3_6 T3_7 1.7908354457117122
RF_f3_7 T3_7 T3_8 1.5659266511735268
RF_f3_8 T3_8 T3_9 1.658219427957251
RF_f3_9 T3_9 T3_10 2.036195758285414
RF_f4_0 T4_0 T4_1 1.685512121982091
RF_f4_1 T4_1 T4_2 1.5816358805394064
RF_f4_2 T4_2 T4_3 1.6136138060067955
RF_f4_3 T4_3 T4_4 1.9572442684650808
RF_f4_4 T4_4 T4_5 1.8629522355373902
RF_f4_5 T4_5 T4_6 1.7775003403484753
RF_f4_6 T4_6 T4_7 1.9899978213404532
RF_f4_7 T4_7 T4_8 1.7233115826664165
RF_f4_8 T4_8 T4_9 1.62421601012899
RF_f4_9 T4_9 T4_10 1.4546794225619362
RF_f5_0 T5_0 T5_1 1.582785560792262
RF_f5_1 T5_1 T5_2 1.9699007097054575
RF_f5_2 T5_2 T5_3 1.9885264131030012
RF_f5_3 T5_3 T5_4 1.854110261882075
RF_f5_4 T5_4 T5_5 1.392432961971099
RF_f5_5 T5_5 T5_6 1.9153695408382811
RF_f5_6 T5_6 T5_7 1.7118750291561422
RF_f5_7 T5_7 T5_8 1.9129193622095806
RF_f5_8 T5_8 T5_9 1.4478111786185321
RF_f5_9 T5_9 T5_10 1.6387572092192255
RF_f6_0 T6_0 T6_1 1.9346202234267227
RF_f6_1 T6_1 T6_2 2.030536032992009
RF_f6_2 T6_2 T6_3 2.0434157708219693
RF_f6_3 T6_3 T6_4 2.0328256750120284
RF_f6_4 T6_4 T6_5 1.8416485852499553
RF_f6_5 T6_5 T6_6 1.8594384890859008
RF_f6_6 T6_6 T6_7 1.6174855562033388
RF_f6_7 T6_7 T6_8 1.5784483972119783
RF_f6_8 T6_8 T6_9 1.5148202200131522
RF_f6_9 T6_9 T6_10 1.526275519840716
RF_f7_0 T7_0 T7_1 1.5675534201616503
RF_f7_1 T7_1 T7_2 1.5788016953451247
RF_f7_2 T7_2 T7_3 1.4097031111478007
RF_f7_3 T7_3 T7_4 1.752023178552963
RF_f7_4 T7_4 T7_5 1.5446789288045515
RF_f7_5 T7_5 T7_6 1.376436216290993
RF_f7_6 T7_6 T7_7 1.7562847871327194
RF_f7_7 T7_7 T7_8 1.8477294627111962
RF_f7_8 T7_8 T7_9 1.6013243385318905
RF_f7_9 T7_9 T7_10 1.6005695612015047
RF_f8_0 T8_0 T8_1 2.0077906294900902
RF_f8_1 T8_1 T8_2 2.0067416606244564
RF_f8_2 T8_2 T8_3 1.630291769324659
RF_f8_3 T8_3 T8_4 1.8963434419754863
RF_f8_4 T8_4 T8_5 1.761947247447499
RF_f8_5 T8_5 T8_6 2.036821676759234
RF_f8_6 T8_6 T8_7 1.5610724376328442
RF_f8_7 T8_7 T8_8 1.6404213720888612
RF_f8_8 T8_8 T8_9 1.8611192336365345
RF_f8_9 T8_9 T8_10 1.8900672076659355
RF_f9_0 T9_0 T9_1 1.5907930673147712
RF_f9_1 T9_1 T9_2 2.062971059141228
RF_f9_2 T9_2 T9_3 1.636468105312512
RF_f9_3 T9_3 T9_4 1.427758784264295
RF_f9_4 T9_4 T9_5 1.7129841506249401
RF_f9_5 T9_5 T9_6 1.918499903495863
RF_f9_6 T9_6 T9_7 1.4269598100648178
RF_f9_7 T9_7 T9_8 1.7717206944552415
RF_f9_8 T9_8 T9_9 1.6695846634835143
RF_f9_9 T9_9 T9_10 1.6421519811939032
RF_f10_0 T10_0 T10_1 1.8078513255875241
RF_f10_1 T10_1 T10_2 1.9496612592453362
RF_f10_2 T10_2 T10_3 1.6433114610673623
RF_f10_3 T10_3 T10_4 1.579434319283768
RF_f10_4 T10_4 T10_5 1.6622897295081427
RF_f10_5 T10_5 T10_6 1.969419977071145
RF_f10_6 T10_6 T10_7 1.4585483780232567
RF_f10_7 T10_7 T10_8 1.8771623736220227
RF_f10_8 T10_8 T10_9 1.9651866786759467
RF_f10_9 T10_9 T10_10 1.5273947230550537
RF_f11_0 T11_0 T11_1 1.5659655679957276
RF_f11_1 T11_1 T11_2 1.6657161261643607
RF_f11_2 T11_2 T11_3 1.5542968833053432
RF_f11_3 T11_3 T11_4 1.5795348794870314
RF_f11_4 T11_4 T11_5 1.9829800408892266
RF_f11_5 T11_5 T11_6 1.7255584725942938
RF_f11_6 T11_6 T11_7 1.5929495770280144
RF_f11_7 T11_7 T11_8 1.4066815870022045
RF_f11_8 T11_8 T11_9 1.6982289959611936
RF_f11_9 T11_9 T11_10 1.8469474927633835
RF_f12_0 T12_0 T12_1 1.582953057304425
RF_f12_1 T12_1 T12_2 1.6055332064200876
RF_f12_2 T12_2 T12_3 1.8623238660439831
RF_f12_3 T12_3 T12_4 1.4137202227469423
RF_f12_4 T12_4 T12_5 1.6815830747925231
RF_f12_5 T12_5 T12_6 1.7298764561908024
RF_f12_6 T12_6 T12_7 2.0126492800197004
RF_f12_7 T12_7 T12_8 1.885562681159973
RF_f12_8 T12_8 T12_9 1.8925708704730537
RF_f12_9 T12_9 T12_10 1.821003486174443
RF_f13_0 T13_0 T13_1 1.4774535595692049
RF_f13_1 T13_1 T13_2 1.8740271115065092
RF_f13_2 T13_2 T13_3 1.9967260564222233
RF_f13_3 T13_3 T13_4 1.4504614075766809
RF_f13_4 T13_4 T13_5 2.033111589329691
RF_f13_5 T13_5 T13_6 1.904146141680732
RF_f13_6 T13_6 T13_7 1.920346260630362
RF_f13_7 T13_7 T13_8 1.5755033212939322
RF_f13_8 T13_8 T13_9 1.8374721268625742
RF_f13_9 T13_9 T13_10 1.539817290499227
RF_f14_0 T14_0 T14_1 1.5681866764228742
RF_f14_1 T14_1 T14_2 1.8062735092559816
RF_f14_2 T14_2 T14_3 1.6833601040319919
RF_f14_3 T14_3 T14_4 1.8007994000340186
RF_f14_4 T14_4 T14_5 1.3807691799452728
RF_f14_5 T14_5 T14_6 1.7998706036041288
RF_f14_6 T14_6 T14_7 1.4761861439876924
RF_f14_7 T14_7 T14_8 1.403668248371119
RF_f14_8 T14_8 T14_9 1.6429110447249515
RF_f14_9 T14_9 T14_10 1.5280611414508534
RF_f15_0 T15_0 T15_1 1.5537354926293212
RF_f15_1 T15_1 T15_2 1.6661370279372227
RF_f15_2 T15_2 T15_3 1.4841082554922247
RF_f15_3 T15_3 T15_4 1.774731578386119
RF_f15_4 T15_4 T15_5 1.4208898762274915
RF_f15_5 T15_5 T15_6 1.7937161845371754
RF_f15_6 T15_6 T15_7 1.6614661464891043
RF_f15_7 T15_7 T15_8 1.8107018044674823
RF_f15_8 T15_8 T15_9 1.799367623548867
RF_f15_9 T15_9 T15_10 1.9635474196433327
RF_f16_0 T16_0 T16_1 2.051895691804834
RF_f16_1 T16_1 T16_2 1.9721577347742958
RF_f16_2 T16_2 T16_3 2.008532784885973
RF_f16_3 T16_3 T16_4 1.552208335623634
RF_f16_4 T16_4 T16_5 1.7147637536510831
RF_f16_5 T16_5 T16_6 1.8133867738776626
RF_f16_6 T16_6 T16_7 1.5261071899731125
RF_f16_7 T16_7 T16_8 1.5187104536120648
RF_f16_8 T16_8 T16_9 1.656502224541053
RF_f16_9 T16_9 T16_10 1.5743165525207785
RF_f17_0 T17_0 T17_1 1.5158657700820082
RF_f17_1 T17_1 T17_2 2.0407962685925654
RF_f17_2 T17_2 T17_3 1.384059687633019
RF_f17_3 T17_3 T17_4 1.5339304680392658
RF_f17_4 T17_4 T17_5 1.562261060008817
RF_f17_5 T17_5 T17_6 2.0337578559480822
RF_f17_6 T17_6 T17_7 1.4716884252129714
RF_f17_7 T17_7 T17_8 1.5508934189895665
RF_f17_8 T17_8 T17_9 1.5616301916292925
RF_f17_9 T17_9 T17_10 1.4381188444987805
RF_f18_0 T18_0 T18_1 1.6053832093289477
RF_f18_1 T18_1 T18_2 1.9782665348565283
RF_f18_2 T18_2 T18_3 1.4414118222123038
RF_f18_3 T18_3 T18_4 1.6862131523564763
RF_f18_4 T18_4 T18_5 1.8507599078720023
RF_f18_5 T18_5 T18_6 1.5767245534162406
RF_f18_6 T18_6 T18_7 1.5240579232981482
RF_f18_7 T18_7 T18_8 1.6554095919444256
RF_f18_8 T18_8 T18_9 1.47025865449947
RF_f18_9 T18_9 T18_10 1.7459992194753617
RF_f19_0 T19_0 T19_1 1.4660912367359655
RF_f19_1 T19_1 T19_2 1.5323391466406344
RF_f19_2 T19_2 T19_3 1.753666543095872
RF_f19_3 T19_3 T19_4 1.9781803544871668
RF_f19_4 T19_4 T19_5 1.6705451460271268
RF_f19_5 T19_5 T19_6 1.6496455000110009
RF_f19_6 T19_6 T19_7 1.8892299455207189
RF_f19_7 T19_7 T19_8 1.7549407778151829
RF_f19_8 T19_8 T19_9 2.0247220063191063
RF_f19_9 T19_9 T19_10 1.786130434645617
RF_f20_0 T20_0 T20_1 1.5213673573001285
RF_f20_1 T20_1 T20_2 1.4935227190015583
RF_f20_2 T20_2 T20_3 1.8740288942465124
RF_f20_3 T20_3 T20_4 1.7181545522140178
RF_f20_4 T20_4 T20_5 1.893489860704522
RF_f20_5 T20_5 T20_6 1.8687708039293804
RF_f20_6 T20_6 T20_7 1.9938325150024325
RF_f20_7 T20_7 T20_8 1.4494497668211814
RF_f20_8 T20_8 T20_9 2.0210767409863233
RF_f20_9 T20_9 T20_10 1.919438174948921
RF_f21_0 T21_0 T21_1 1.4836365323035898
RF_f21_1 T21_1 T21_2 1.8943372325408694
RF_f21_2 T21_2 T21_3 1.474852218710329
RF_f21_3 T21_3 T21_4 1.4592678151402876
RF_f21_4 T21_4 T21_5 1.4896992716593238
RF_f21_5 T21_5 T21_6 1.5505425195988827
RF_f21_6 T21_6 T21_7 1.6118531907606555
RF_f21_7 T21_7 T21_8 1.9520695859851767
RF_f21_8 T21_8 T21_9 1.837586663289803
RF_f21_9 T21_9 T21_10 1.6819337424172653
RF_f22_0 T22_0 T22_1 2.0194480228574343
RF_f22_1 T22_1 T22_2 1.9522966837376894
RF_f22_2 T22_2 T22_3 1.637034211351818
RF_f22_3 T22_3 T22_4 1.8021610863690276
RF_f22_4 T22_4 T22_5 1.8002206441548554
RF_f22_5 T22_5 T22_6 1.7996287726426954
RF_f22_6 T22_6 T22_7 1.799092111784483
RF_f22_7 T22_7 T22_8 1.5775329910424307
RF_f22_8 T22_8 T22_9 1.7100914691955
RF_f22_9 T22_9 T22_10 2.0345107239522835
RF_f23_0 T23_0 T23_1 1.5555904535990386
RF_f23_1 T23_1 T23_2 1.8470409409149593
RF_f23_2 T23_2 T23_3 1.8114259363971026
RF_f23_3 T23_3 T23_4 1.663336321096637
RF_f23_4 T23_4 T23_5 1.7055107053261604
RF_f23_5 T23_5 T23_6 1.4999696219089216
RF_f23_6 T23_6 T23_7 1.9919329731683688
RF_f23_7 T23_7 T23_8 1.57539921142343
RF_f23_8 T23_8 T23_9 1.4560029659268907
RF_f23_9 T23_9 T23_10 1.6646296136734957
RF_f24_0 T24_0 T24_1 1.804626941932622
RF_f24_1 T24_1 T24_2 2.0077218787377684
RF_f24_2 T24_2 T24_3 1.44667090060972
RF_f24_3 T24_3 T24_4 1.6464787908724317
RF_f24_4 T24_4 T24_5 1.612048027920418
RF_f24_5 T24_5 T24_6 1.7919047511481474
RF_f24_6 T24_6 T24_7 1.5981010443391526
RF_f24_7 T24_7 T24_8 1.9837697985496332
RF_f24_8 T24_8 T24_9 2.007572819043477
RF_f24_9 T24_9 T24_10 1.3891289645493252
RF_f25_0 T25_0 T25_1 2.0445290835245347
RF_f25_1 T25_1 T25_2 1.9399475200754763
RF_f25_2 T25_2 T25_3 1.8469739088365096
RF_f25_3 T25_3 T25_4 1.685040299766699
RF_f25_4 T25_4 T25_5 1.5948999872442977
RF_f25_5 T25_5 T25_6 1.969955441033365
RF_f25_6 T25_6 T25_7 1.3859360948352784
RF_f25_7 T25_7 T25_8 1.4706605025603054
RF_f25_8 T25_8 T25_9 1.4106930408334886
RF_f25_9 T25_9 T25_10 1.9481300948602143
RF_f26_0 T26_0 T26_1 1.7709042144814617
RF_f26_1 T26_1 T26_2 1.8829803664852625
RF_f26_2 T26_2 T26_3 1.412329992954878
RF_f26_3 T26_3 T26_4 1.7224345824651432
RF_f26_4 T26_4 T26_5 1.5932820243879375
RF_f26_5 T26_5 T26_6 1.9452501066438261
RF_f26_6 T26_6 T26_7 1.8912684075889716
RF_f26_7 T26_7 T26_8 1.4978600338707924
RF_f26_8 T26_8 T26_9 1.6593279988867535
RF_f26_9 T26_9 T26_10 1.923293781557112
RF_f27_0 T27_0 T27_1 1.8389944392036826
RF_f27_1 T27_1 T27_2 1.5435959886779946
RF_f27_2 T27_2 T27_3 2.0214238942360363
RF_f27_3 T27_3 T27_4 1.9375289064205998
RF_f27_4 T27_4 T27_5 1.6470852801792684
RF_f27_5 T27_5 T27_6 1.9485855397840477
RF_f27_6 T27_6 T27_7 1.4777160625028738
RF_f27_7 T27_7 T27_8 1.9814616567479515
RF_f27_8 T27_8 T27_9 1.779719560134659
RF_f27_9 T27_9 T27_10 1.5617421288102045
RF_f28_0 T28_0 T28_1 1.794659448432387
RF_f28_1 T28_1 T28_2 2.0425035423652296
RF_f28_2 T28_2 T28_3 1.393621145984764
RF_f28_3 T28_3 T28_4 1.7423731975766379
RF_f28_4 T28_4 T28_5 1.723422073467927
RF_f28_5 T28_5 T28_6 1.4968287568155363
RF_f28_6 T28_6 T28_7 1.8564372561226365
RF_f28_7 T28_7 T28_8 1.647841237484179
RF_f28_8 T28_8 T28_9 1.4591793783556093
RF_f28_9 T28_9 T28_10 1.96222471180614
RF_f29_0 T29_0 T29_1 1.742401751470092
RF_f29_1 T29_1 T29_2 1.510067637052333
RF_f29_2 T29_2 T29_3 1.870006331844047
RF_f29_3 T29_3 T29_4 1.6485666676893755
RF_f29_4 T29_4 T29_5 2.0184806743514963
RF_f29_5 T29_5 T29_6 2.0299931940400953
RF_f29_6 T29_6 T29_7 1.7792867831051264
RF_f29_7 T29_7 T29_8 1.6788868813744107
RF_f29_8 T29_8 T29_9 1.9508004657097895
RF_f29_9 T29_9 T29_10 1.4954508663659483
RF_f30_0 T30_0 T30_1 1.8358058557094379
RF_f30_1 T30_1 T30_2 1.781291611056926
RF_f30_2 T30_2 T30_3 1.4364492092720196
RF_f30_3 T30_3 T30_4 1.908446429901977
RF_f30_4 T30_4 T30_5 1.6927661339478617
RF_f30_5 T30_5 T30_6 1.4294488385513406
RF_f30_6 T30_6 T30_7 1.7090533186743153
RF_f30_7 T30_7 T30_8 1.709715790191588
RF_f30_8 T30_8 T30_9 1.7379006973123006
RF_f30_9 T30_9 T30_10 2.032778945168102
RF_f31_0 T31_0 T31_1 1.8870807246515988
RF_f31_1 T31_1 T31_2 1.5848321212397332
RF_f31_2 T31_2 T31_3 1.6753733508020159
RF_f31_3 T31_3 T31_4 1.5637340220797986
RF_f31_4 T31_4 T31_5 1.469144730808045
RF_f31_5 T31_5 T31_6 1.5931342632316918
RF_f31_6 T31_6 T31_7 2.0227766799647933
RF_f31_7 T31_7 T31_8 2.0282036059571142
RF_f31_8 T31_8 T31_9 1.9804628725314495
RF_f31_9 T31_9 T31_10 1.7286543219503994
RF_f32_0 T32_0 T32_1 1.4448858306051011
RF_f32_1 T32_1 T32_2 1.8842701100067192
RF_f32_2 T32_2 T32_3 1.5418679453582604
RF_f32_3 T32_3 T32_4 1.7256244003021295
RF_f32_4 T32_4 T32_5 1.8029320668213318
RF_f32_5 T32_5 T32_6 1.3837588354069936
RF_f32_6 T32_6 T32_7 1.529249494815612
RF_f32_7 T32_7 T32_8 2.026839315604658
RF_f32_8 T32_8 T32_9 1.3963179751843713
RF_f32_9 T32_9 T32_10 1.405959306752422
RF_f33_0 T33_0 T33_1 1.9873505110252951
RF_f33_1 T33_1 T33_2 1.5311460217333006
RF_f33_2 T33_2 T33_3 2.0446865917648367
RF_f33_3 T33_3 T33_4 1.698189853624531
RF_f33_4 T33_4 T33_5 1.7622861547380229
RF_f33_5 T33_5 T33_6 1.6662878555473728
RF_f33_6 T33_6 T33_7 1.5210662271949065
RF_f33_7 T33_7 T33_8 1.6923497661248559
RF_f33_8 T33_8 T33_9 1.7134337335942502
RF_f33_9 T33_9 T33_10 1.9869291314800375
RF_f34_0 T34_0 T34_1 1.4422600102943415
RF_f34_1 T34_1 T34_2 1.3985644080872022
RF_f34_2 T34_2 T34_3 1.4031751719257002
RF_f34_3 T34_3 T34_4 2.0466451021092475
RF_f34_4 T34_4 T34_5 1.4308271107917634
RF_f34_5 T34_5 T34_6 1.666788286196363
RF_f34_6 T34_6 T34_7 1.7910806629603964
RF_f34_7 T34_7 T34_8 1.5990777790236939
RF_f34_8 T34_8 T34_9 1.7189282306830937
RF_f34_9 T34_9 T34_10 1.6470178574867163
RF_f35_0 T35_0 T35_1 1.7351573301896477
RF_f35_1 T35_1 T35_2 1.8125326164717652
RF_f35_2 T35_2 T35_3 1.5076238682263072
RF_f35_3 T35_3 T35_4 2.0061563580881483
RF_f35_4 T35_4 T35_5 1.500201790601324
RF_f35_5 T35_5 T35_6 1.6178143772281803
RF_f35_6 T35_6 T35_7 1.4338777606089514
RF_f35_7 T35_7 T35_8 1.783538609259284
RF_f35_8 T35_8 T35_9 1.9942665469082037
RF_f35_9 T35_9 T35_10 2.0172223369542657
RF_f36_0 T36_0 T36_1 2.0251958047090124
RF_f36_1 T36_1 T36_2 1.8952827971545816
RF_f36_2 T36_2 T36_3 1.7233582742059188
RF_f36_3 T36_3 T36_4 1.3975069751000888
RF_f36_4 T36_4 T36_5 1.4396984312918382
RF_f36_5 T36_5 T36_6 1.3783275254927816
RF_f36_6 T36_6 T36_7 1.5882830820843208
RF_f36_7 T36_7 T36_8 1.8282827324193467
RF_f36_8 T36_8 T36_9 1.5429224258810943
RF_f36_9 T36_9 T36_10 1.6289904931819237
RF_f37_0 T37_0 T37_1 1.6854065712427255
RF_f37_1 T37_1 T37_2 1.5711130070841608
RF_f37_2 T37_2 T37_3 1.6899091706018183
RF_f37_3 T37_3 T37_4 2.013495323728174
RF_f37_4 T37_4 T37_5 1.5008584888425245
RF_f37_5 T37_5 T37_6 2.017804606886367
RF_f37_6 T37_6 T37_7 1.8910626731392928
RF_f37_7 T37_7 T37_8 1.660138670706081
RF_f37_8 T37_8 T37_9 1.607786844002363
RF_f37_9 T37_9 T37_10 1.8183253223749263
RF_f38_0 T38_0 T38_1 1.9751681406825425
RF_f38_1 T38_1 T38_2 1.4131441530796431
RF_f38_2 T38_2 T38_3 1.824148685641139
RF_f38_3 T38_3 T38_4 1.7364946508727548
RF_f38_4 T38_4 T38_5 1.9022832453684242
RF_f38_5 T38_5 T38_6 1.8198875285389033
RF_f38_6 T38_6 T38_7 2.0285302180881097
RF_f38_7 T38_7 T38_8 1.704536027348557
RF_f38_8 T38_8 T38_9 1.381857158334912
RF_f38_9 T38_9 T38_10 1.896352736746943
RF_f39_0 T39_0 T39_1 1.6562754887521232
RF_f39_1 T39_1 T39_2 1.6941424978054793
RF_f39_2 T39_2 T39_3 1.6220733075605858
RF_f39_3 T39_3 T39_4 1.9515910002318066
RF_f39_4 T39_4 T39_5 1.5503553185582128
RF_f39_5 T39_5 T39_6 1.9059047582275264
RF_f39_6 T39_6 T39_7 1.4231191927501818
RF_f39_7 T39_7 T39_8 1.4233051135156216
RF_f39_8 T39_8 T39_9 1.9560717919578479
RF_f39_9 T39_9 T39_10 2.0055531879345927
RF_f40_0 T40_0 T40_1 1.4668178555446292
RF_f40_1 T40_1 T40_2 1.9966456612855596
RF_f40_2 T40_2 T40_3 1.768507870101907
RF_f40_3 T40_3 T40_4 1.5026560357842558
RF_f40_4 T40_4 T40_5 1.9163546767824526
RF_f40_5 T40_5 T40_6 1.857519409268987
RF_f40_6 T40_6 T40_7 1.7221135584024538
RF_f40_7 T40_7 T40_8 1.6077635032343571
RF_f40_8 T40_8 T40_9 1.9165055412783463
RF_f40_9 T40_9 T40_10 2.0205239931128194
RF_f41_0 T41_0 T41_1 1.882299862933031
RF_f41_1 T41_1 T41_2 1.8820124380596779
RF_f41_2 T41_2 T41_3 1.863417423207499
RF_f41_3 T41_3 T41_4 1.891524397553055
RF_f41_4 T41_4 T41_5 1.4860412050271117
RF_f41_5 T41_5 T41_6 1.7326575073710495
RF_f41_6 T41_6 T41_7 1.4602229006383578
RF_f41_7 T41_7 T41_8 1.8349256776233709
RF_f41_8 T41_8 T41_9 1.5848963201380861
RF_f41_9 T41_9 T41_10 1.9205752636244149
RF_f42_0 T42_0 T42_1 1.5491085671159015
RF_f42_1 T42_1 T42_2 1.4309727720393375
RF_f42_2 T42_2 T42_3 1.439605123002454
RF_f42_3 T42_3 T42_4 1.470642475998966
RF_f42_4 T42_4 T42_5 1.6312202918918663
RF_f42_5 T42_5 T42_6 1.91243155714905
RF_f42_6 T42_6 T42_7 1.5788454400432115
RF_f42_7 T42_7 T42_8 1.4087183691984344
RF_f42_8 T42_8 T42_9 1.5938496924954104
RF_f42_9 T42_9 T42_10 1.392903408753569
RF_f43_0 T43_0 T43_1 1.960415148103619
RF_f43_1 T43_1 T43_2 1.5975017418014896
RF_f43_2 T43_2 T43_3 1.4900788287948177
RF_f43_3 T43_3 T43_4 1.7477735351419676
RF_f43_4 T43_4 T43_5 2.0602429359550065
RF_f43_5 T43_5 T43_6 1.643517881495162
RF_f43_6 T43_6 T43_7 1.984955913052113
RF_f43_7 T43_7 T43_8 1.7927428091645126
RF_f43_8 T43_8 T43_9 1.835022980294297
RF_f43_9 T43_9 T43_10 1.8048401602627577
RF_f44_0 T44_0 T44_1 1.3772403461895097
RF_f44_1 T44_1 T44_2 1.4349685037374642
RF_f44_2 T44_2 T44_3 1.8895294812158534
RF_f44_3 T44_3 T44_4 1.5325914774148983
RF_f44_4 T44_4 T44_5 1.5192917626895226
RF_f44_5 T44_5 T44_6 1.5350034544783961
RF_f44_6 T44_6 T44_7 1.8419683429967189
RF_f44_7 T44_7 T44_8 2.0395643019828
RF_f44_8 T44_8 T44_9 1.7683282202976216
RF_f44_9 T44_9 T44_10 1.4363841404797633
RF_f45_0 T45_0 T45_1 1.6462828723428409
RF_f45_1 T45_1 T45_2 1.498598700200974
RF_f45_2 T45_2 T45_3 1.8147564238982263
RF_f45_3 T45_3 T45_4 2.0623454685483416
RF_f45_4 T45_4 T45_5 1.8159069037643203
RF_f45_5 T45_5 T45_6 1.552207434787519
RF_f45_6 T45_6 T45_7 1.744170908111355
RF_f45_7 T45_7 T45_8 1.6106361708772627
RF_f45_8 T45_8 T45_9 1.669762798826675
RF_f45_9 T45_9 T45_10 1.6446358176951026
RF_f46_0 T46_0 T46_1 1.9644488606221038
RF_f46_1 T46_1 T46_2 1.4234366413295911
RF_f46_2 T46_2 T46_3 1.9657439294827337
RF_f46_3 T46_3 T46_4 1.6682834343323083
RF_f46_4 T46_4 T46_5 1.542152617940848
RF_f46_5 T46_5 T46_6 1.5802681258868523
RF_f46_6 T46_6 T46_7 1.5006554180449654
RF_f46_7 T46_7 T46_8 1.5870069942667813
RF_f46_8 T46_8 T46_9 2.055027488665049
RF_f46_9 T46_9 T46_10 1.880128283666465
RF_f47_0 T47_0 T47_1 1.7231625518512521
RF_f47_1 T47_1 T47_2 1.5543749650420813
RF_f47_2 T47_2 T47_3 1.6014348964315517
RF_f47_3 T47_3 T47_4 1.6163583640796824
RF_f47_4 T47_4 T47_5 1.940053750072801
RF_f47_5 T47_5 T47_6 1.813119190279067
RF_f47_6 T47_6 T47_7 2.0404653039818164
RF_f47_7 T47_7 T47_8 1.5848452059098261
RF_f47_8 T47_8 T47_9 1.77446049017935
RF_f47_9 T47_9 T47_10 1.5799836228350324
RF_f48_0 T48_0 T48_1 1.7281802779243554
RF_f48_1 T48_1 T48_2 2.004078200318717
RF_f48_2 T48_2 T48_3 1.7374668527736075
RF_f48_3 T48_3 T48_4 1.5928573562974535
RF_f48_4 T48_4 T48_5 1.6076554425984355
RF_f48_5 T48_5 T48_6 1.7474906124551022
RF_f48_6 T48_6 T48_7 1.8980495643735247
RF_f48_7 T48_7 T48_8 1.9295020249072052
RF_f48_8 T48_8 T48_9 1.497979157469147
RF_f48_9 T48_9 T48_10 1.9924155009746713
RF_f49_0 T49_0 T49_1 1.8767643755534116
RF_f49_1 T49_1 T49_2 1.7562242058305795
RF_f49_2 T49_2 T49_3 1.9761837759779821
RF_f49_3 T49_3 T49_4 1.5689496598542692
RF_f49_4 T49_4 T49_5 1.8055930722633244
RF_f49_5 T49_5 T49_6 1.5704620706672987
RF_f49_6 T49_6 T49_7 1.6534655596829342
RF_f49_7 T49_7 T49_8 1.4292077318489245
RF_f49_8 T49_8 T49_9 1.8357541803868558
RF_f49_9 T49_9 T49_10 1.6153184617237302
RF_f50_0 T50_0 T50_1 2.035111646696603
RF_f50_1 T50_1 T50_2 1.4622392938145048
RF_f50_2 T50_2 T50_3 1.8976188699413972
RF_f50_3 T50_3 T50_4 1.777627590370384
RF_f50_4 T50_4 T50_5 2.057357307709971
RF_f50_5 T50_5 T50_6 1.5637925646467308
RF_f50_6 T50_6 T50_7 1.7333926148680536
RF_f50_7 T50_7 T50_8 1.469345683314967
RF_f50_8 T50_8 T50_9 1.4250943356718972
RF_f50_9 T50_9 T50_10 1.5549791956449872
RF_f51_0 T51_0 T51_1 1.7134521092106103
RF_f51_1 T51_1 T51_2 1.8635417613550374
RF_f51_2 T51_2 T51_3 1.6972470360486829
RF_f51_3 T51_3 T51_4 1.9798659754980523
RF_f51_4 T51_4 T51_5 1.8014581399791392
RF_f51_5 T51_5 T51_6 1.6789695518692034
RF_f51_6 T51_6 T51_7 1.5659466100809263
RF_f51_7 T51_7 T51_8 1.683799797638452
RF_f51_8 T51_8 T51_9 1.7005443478583924
RF_f51_9 T51_9 T51_10 1.4915746325475703
RF_f52_0 T52_0 T52_1 1.8516422501782688
RF_f52_1 T52_1 T52_2 1.7505268046662597
RF_f52_2 T52_2 T52_3 1.6341942554631455
RF_f52_3 T52_3 T52_4 1.8644680491071286
RF_f52_4 T52_4 T52_5 1.8915372620272337
RF_f52_5 T52_5 T52_6 1.9721881658743086
RF_f52_6 T52_6 T52_7 1.5412134417600647
RF_f52_7 T52_7 T52_8 1.4747909882296708
RF_f52_8 T52_8 T52_9 2.014279040848752
RF_f52_9 T52_9 T52_10 1.791346399454479
RF_f53_0 T53_0 T53_1 1.9123318303338341
RF_f53_1 T53_1 T53_2 1.8304007233615365
RF_f53_2 T53_2 T53_3 1.7995516223394454
RF_f53_3 T53_3 T53_4 1.6646600249123842
RF_f53_4 T53_4 T53_5 1.6044333789101017
RF_f53_5 T53_5 T53_6 1.6288265493963971
RF_f53_6 T53_6 T53_7 1.8791083858405218
RF_f53_7 T53_7 T53_8 1.8785667133488022
RF_f53_8 T53_8 T53_9 1.8713802610575818
RF_f53_9 T53_9 T53_10 1.837027524005498
RF_f54_0 T54_0 T54_1 2.047756986016276
RF_f54_1 T54_1 T54_2 1.953175001500267
RF_f54_2 T54_2 T54_3 1.4614730251920138
RF_f54_3 T54_3 T54_4 1.9893787654710342
RF_f54_4 T54_4 T54_5 2.03950874353181
RF_f54_5 T54_5 T54_6 1.790709650402943
RF_f54_6 T54_6 T54_7 1.8867109077307118
RF_f54_7 T54_7 T54_8 1.4786643687849614
RF_f54_8 T54_8 T54_9 1.588026822384651
RF_f54_9 T54_9 T54_10 2.005632098492098
RF_f55_0 T55_0 T55_1 1.8073776078870463
RF_f55_1 T55_1 T55_2 1.9798192743493406
RF_f55_2 T55_2 T55_3 1.9420094306316407
RF_f55_3 T55_3 T55_4 1.7449540693035923
RF_f55_4 T55_4 T55_5 1.925748172488756
RF_f55_5 T55_5 T55_6 1.8157636350948925
RF_f55_6 T55_6 T55_7 1.6175110469056755
RF_f55_7 T55_7 T55_8 1.6754956954058104
RF_f55_8 T55_8 T55_9 1.539531676500517
RF_f55_9 T55_9 T55_10 1.7805153284307316
RF_f56_0 T56_0 T56_1 2.0194633000659343
RF_f56_1 T56_1 T56_2 1.6685981814495925
RF_f56_2 T56_2 T56_3 1.6134904004834558
RF_f56_3 T56_3 T56_4 1.4276411509911373
RF_f56_4 T56_4 T56_5 1.4741826894212215
RF_f56_5 T56_5 T56_6 1.605405898257573
RF_f56_6 T56_6 T56_7 1.935467271313765
RF_f56_7 T56_7 T56_8 1.519444269840553
RF_f56_8 T56_8 T56_9 1.4079673286015784
RF_f56_9 T56_9 T56_10 1.5233047772076755
RF_f57_0 T57_0 T57_1 1.5546515257258184
RF_f57_1 T57_1 T57_2 1.5071565528843538
RF_f57_2 T57_2 T57_3 1.9369461191565394
RF_f57_3 T57_3 T57_4 1.999285865743587
RF_f57_4 T57_4 T57_5 1.3991477685449276
RF_f57_5 T57_5 T57_6 1.5344153540253251
RF_f57_6 T57_6 T57_7 1.9721384213787685
RF_f57_7 T57_7 T57_8 1.555912129712433
RF_f57_8 T57_8 T57_9 1.9123943684253417
RF_f57_9 T57_9 T57_10 1.9476012565431604
RF_f58_0 T58_0 T58_1 1.5900305236774877
RF_f58_1 T58_1 T58_2 1.778454833865949
RF_f58_2 T58_2 T58_3 1.9944809167265423
RF_f58_3 T58_3 T58_4 1.6773394257356693
RF_f58_4 T58_4 T58_5 1.5176196051115345
RF_f58_5 T58_5 T58_6 1.9877177091573026
RF_f58_6 T58_6 T58_7 1.829165213039277
RF_f58_7 T58_7 T58_8 1.7237704487543744
RF_f58_8 T58_8 T58_9 1.8166373666446443
RF_f58_9 T58_9 T58_10 1.4468982486782196
RF_f59_0 T59_0 T59_1 1.6569498723007068
RF_f59_1 T59_1 T59_2 1.6151737765402654
RF_f59_2 T59_2 T59_3 1.9590730876936846
RF_f59_3 T59_3 T59_4 1.6916573749288983
RF_f59_4 T59_4 T59_5 2.043195884958927
RF_f59_5 T59_5 T59_6 1.4755721679987694
RF_f59_6 T59_6 T59_7 1.808742450314973
RF_f59_7 T59_7 T59_8 1.4901077205441795
RF_f59_8 T59_8 T59_9 2.0217914536103216
RF_f59_9 T59_9 T59_10 1.5775863554474365
RF_f60_0 T60_0 T60_1 1.885446410672411
RF_f60_1 T60_1 T60_2 1.5848714118152707
RF_f60_2 T60_2 T60_3 1.617908998540293
RF_f60_3 T60_3 T60_4 1.966055133190319
RF_f60_4 T60_4 T60_5 1.4433710481730997
RF_f60_5 T60_5 T60_6 1.538508675748707
RF_f60_6 T60_6 T60_7 1.891026333544436
RF_f60_7 T60_7 T60_8 1.8607750066996342
RF_f60_8 T60_8 T60_9 1.5400939510661247
RF_f60_9 T60_9 T60_10 2.0248169387365005
RF_f61_0 T61_0 T61_1 1.7400016033137384
RF_f61_1 T61_1 T61_2 1.8936390024589211
RF_f61_2 T61_2 T61_3 1.9516726184886934
RF_f61_3 T61_3 T61_4 1.9011157004820365
RF_f61_4 T61_4 T61_5 1.950802198251698
RF_f61_5 T61_5 T61_6 1.7050273805010348
RF_f61_6 T61_6 T61_7 1.388828619719428
RF_f61_7 T61_7 T61_8 1.9599991554897738
RF_f61_8 T61_8 T61_9 1.5228611815958453
RF_f61_9 T61_9 T61_10 1.5828767258580647
RF_f62_0 T62_0 T62_1 1.6273078936398533
RF_f62_1 T62_1 T62_2 1.5081755063866165
RF_f62_2 T62_2 T62_3 1.5084091614087909
RF_f62_3 T62_3 T62_4 1.823185312314691
RF_f62_4 T62_4 T62_5 1.703437694529808
RF_f62_5 T62_5 T62_6 1.5010734869213043
RF_f62_6 T62_6 T62_7 1.5664962099145527
RF_f62_7 T62_7 T62_8 1.8996407436569873
RF_f62_8 T62_8 T62_9 1.705822296899464
RF_f62_9 T62_9 T62_10 1.8442939985168434
RF_f63_0 T63_0 T63_1 1.5160336071781506
RF_f63_1 T63_1 T63_2 1.8018882900453606
RF_f63_2 T63_2 T63_3 1.7208413999568246
RF_f63_3 T63_3 T63_4 1.5381032438331184
RF_f63_4 T63_4 T63_5 1.5171820782943224
RF_f63_5 T63_5 T63_6 1.6147807130585374
RF_f63_6 T63_6 T63_7 1.4630110872725357
RF_f63_7 T63_7 T63_8 1.9736738731690275
RF_f63_8 T63_8 T63_9 1.4604139670357426
RF_f63_9 T63_9 T63_10 2.03015958382033
RF_f64_0 T64_0 T64_1 2.031266680708568
RF_f64_1 T64_1 T64_2 1.9364500053489035
RF_f64_2 T64_2 T64_3 1.4693929091375888
RF_f64_3 T64_3 T64_4 1.576454449966806
RF_f64_4 T64_4 T64_5 1.5231610388909915
RF_f64_5 T64_5 T64_6 1.8046403691790731
RF_f64_6 T64_6 T64_7 1.8380627666855
RF_f64_7 T64_7 T64_8 1.5300655960014025
RF_f64_8 T64_8 T64_9 2.022726311033132
RF_f64_9 T64_9 T64_10 2.05857177375327
RF_f65_0 T65_0 T65_1 1.826437874069542
RF_f65_1 T65_1 T65_2 1.5388577424697472
RF_f65_2 T65_2 T65_3 1.8701520786334314
RF_f65_3 T65_3 T65_4 1.9656175613740907
RF_f65_4 T65_4 T65_5 1.6410729085628435
RF_f65_5 T65_5 T65_6 1.8010743870916304
RF_f65_6 T65_6 T65_7 1.9435039528895433
RF_f65_7 T65_7 T65_8 1.9660040007836888
RF_f65_8 T65_8 T65_9 2.0490242122760547
RF_f65_9 T65_9 T65_10 1.536557003334312
RF_f66_0 T66_0 T66_1 1.3864460913140493
RF_f66_1 T66_1 T66_2 1.5333246323998355
RF_f66_2 T66_2 T66_3 1.5491094773724756
RF_f66_3 T66_3 T66_4 1.6377649898503863
RF_f66_4 T66_4 T66_5 1.6899725287008562
RF_f66_5 T66_5 T66_6 1.8702679354293612
RF_f66_6 T66_6 T66_7 1.4252479960251654
RF_f66_7 T66_7 T66_8 1.6976063550265552
RF_f66_8 T66_8 T66_9 1.4578187110598009
RF_f66_9 T66_9 T66_10 1.6458931722844174
RF_f67_0 T67_0 T67_1 1.8936007063997813
RF_f67_1 T67_1 T67_2 1.5574484797266157
RF_f67_2 T67_2 T67_3 1.6664265719390525
RF_f67_3 T67_3 T67_4 1.6393870075404697
RF_f67_4 T67_4 T67_5 1.7303129298912256
RF_f67_5 T67_5 T67_6 1.695376687661006
RF_f67_6 T67_6 T67_7 1.5668617790214523
RF_f67_7 T67_7 T67_8 1.7636547031375813
RF_f67_8 T67_8 T67_9 1.9712775246119985
RF_f67_9 T67_9 T67_10 1.723023387008567
RF_f68_0 T68_0 T68_1 1.8030798675946955
RF_f68_1 T68_1 T68_2 1.9097084345597675
RF_f68_2 T68_2 T68_3 1.8706376616371647
RF_f68_3 T68_3 T68_4 1.948451479056359
RF_f68_4 T68_4 T68_5 1.9482137509686561
RF_f68_5 T68_5 T68_6 1.5879392026290207
RF_f68_6 T68_6 T68_7 1.7522647299098535
RF_f68_7 T68_7 T68_8 1.8194678225025536
RF_f68_8 T68_8 T68_9 1.6028199037612711
RF_f68_9 T68_9 T68_10 1.6390233147669817
RF_f69_0 T69_0 T69_1 1.5868583431643735
RF_f69_1 T69_1 T69_2 1.482669178023321
RF_f69_2 T69_2 T69_3 1.5869778790511693
RF_f69_3 T69_3 T69_4 1.9539130285440716
RF_f69_4 T69_4 T69_5 1.8489410005858182
RF_f69_5 T69_5 T69_6 2.0257338770255995
RF_f69_6 T69_6 T69_7 1.4871111780231419
RF_f69_7 T69_7 T69_8 2.001051921723662
RF_f69_8 T69_8 T69_9 1.8833324493233259
RF_f69_9 T69_9 T69_10 1.6738622600727666
RF_f70_0 T70_0 T70_1 2.057042301314345
RF_f70_1 T70_1 T70_2 1.7099856941142288
RF_f70_2 T70_2 T70_3 1.6273691566209485
RF_f70_3 T70_3 T70_4 1.8736713946481827
RF_f70_4 T70_4 T70_5 1.4937419600816726
RF_f70_5 T70_5 T70_6 2.026690608607292
RF_f70_6 T70_6 T70_7 1.9918035551212316
RF_f70_7 T70_7 T70_8 1.8889458925201381
RF_f70_8 T70_8 T70_9 1.3924252815579274
RF_f70_9 T70_9 T70_10 1.9304441640895487
RF_f71_0 T71_0 T71_1 1.55634730742816
RF_f71_1 T71_1 T71_2 1.909652256934823
RF_f71_2 T71_2 T71_3 1.399659721755815
RF_f71_3 T71_3 T71_4 2.0443924527893573
RF_f71_4 T71_4 T71_5 1.7573811777753354
RF_f71_5 T71_5 T71_6 1.7979697631169316
RF_f71_6 T71_6 T71_7 1.4135518262444966
RF_f71_7 T71_7 T71_8 1.4166181600404806
RF_f71_8 T71_8 T71_9 1.9701676822123146
RF_f71_9 T71_9 T71_10 1.7108477847073305
RF_f72_0 T72_0 T72_1 1.3974704739306238
RF_f72_1 T72_1 T72_2 1.4087838506914399
RF_f72_2 T72_2 T72_3 1.8084984355088984
RF_f72_3 T72_3 T72_4 1.7528041881633578
RF_f72_4 T72_4 T72_5 1.998768157344737
RF_f72_5 T72_5 T72_6 1.6720740579460036
RF_f72_6 T72_6 T72_7 1.5769101822199605
RF_f72_7 T72_7 T72_8 1.9720001498918949
RF_f72_8 T72_8 T72_9 1.4041517551176927
RF_f72_9 T72_9 T72_10 1.4211672625114722
RF_f73_0 T73_0 T73_1 1.7103783572889566
RF_f73_1 T73_1 T73_2 1.7269266441774724
RF_f73_2 T73_2 T73_3 1.9387411631875495
RF_f73_3 T73_3 T73_4 1.928683575406666
RF_f73_4 T73_4 T73_5 1.5212625320254785
RF_f73_5 T73_5 T73_6 1.5700136653158632
RF_f73_6 T73_6 T73_7 1.7113030279784422
RF_f73_7 T73_7 T73_8 1.5392749468108922
RF_f73_8 T73_8 T73_9 1.6417701484550502
RF_f73_9 T73_9 T73_10 1.469771032263656
RF_f74_0 T74_0 T74_1 1.4893178284394606
RF_f74_1 T74_1 T74_2 2.044128652944361
RF_f74_2 T74_2 T74_3 1.7539185557996892
RF_f74_3 T74_3 T74_4 1.7026209758796533
RF_f74_4 T74_4 T74_5 1.4982999559335415
RF_f74_5 T74_5 T74_6 1.4960967614859748
RF_f74_6 T74_6 T74_7 1.6105016841384707
RF_f74_7 T74_7 T74_8 1.9845621468783081
RF_f74_8 T74_8 T74_9 1.6916681295577585
RF_f74_9 T74_9 T74_10 2.002729914914337
RF_f75_0 T75_0 T75_1 1.987514071600026
RF_f75_1 T75_1 T75_2 1.8548390620419228
RF_f75_2 T75_2 T75_3 1.7617988031045384
RF_f75_3 T75_3 T75_4 1.7707255890518672
RF_f75_4 T75_4 T75_5 1.5946276895486182
RF_f75_5 T75_5 T75_6 1.9839490143100824
RF_f75_6 T75_6 T75_7 2.036205502278611
RF_f75_7 T75_7 T75_8 1.9023454894133973
RF_f75_8 T75_8 T75_9 2.053823279006686
RF_f75_9 T75_9 T75_10 1.4239232033886706
RF_f76_0 T76_0 T76_1 1.9967196080752412
RF_f76_1 T76_1 T76_2 1.98796473784043
RF_f76_2 T76_2 T76_3 1.47327920663514
RF_f76_3 T76_3 T76_4 1.4039837522799758
RF_f76_4 T76_4 T76_5 1.4910237967922566
RF_f76_5 T76_5 T76_6 1.5418883524026032
RF_f76_6 T76_6 T76_7 1.8633980631673943