Version 4
SHEET 1 880 680
WIRE 160 112 32 112
WIRE 304 112 272 112
WIRE 432 112 416 112
WIRE 576 112 544 112
WIRE 304 160 272 160
WIRE 432 160 416 160
WIRE 576 160 544 160
WIRE 32 208 32 192
WIRE 160 208 160 160
WIRE 160 208 32 208
FLAG 576 112 O+
IOPIN 576 112 Out
FLAG 576 160 O-
IOPIN 576 160 Out
FLAG 32 208 0
SYMBOL Test_motif 224 144 R0
SYMATTR InstName X1
SYMBOL Test_motif 368 144 R0
SYMATTR InstName X2
SYMBOL Test_motif 496 144 R0
SYMATTR InstName X3
SYMBOL voltage 32 96 R0
WINDOW 3 24 44 Left 2
WINDOW 123 0 0 Left 0
WINDOW 39 0 0 Left 0
SYMATTR Value 1
SYMATTR InstName V1
TEXT 0 224 Left 2 !.tran 100n
TEXT 496 312 Left 2 !.param R1 = 1k
TEXT 496 352 Left 2 !.param R2 = 2k
