.SUBCKT solarcell IF IB VF VB
*C:\Users\ASUS\Desktop\Semesters\Sem 8\BTP\Simulation\FEM_Mk7\Model\sim1\configIModel\sim1\configI\solarcell.asc
RF_f1_0 T1_0 T1_1 1.8857825626293492
RF_f1_1 T1_1 T1_2 1.9764240154408066
RF_f1_2 T1_2 T1_3 1.5096674234079177
RF_f1_3 T1_3 T1_4 1.8040657505074473
RF_f1_4 T1_4 T1_5 1.7705041106426678
RF_f1_5 T1_5 T1_6 2.0180819723873804
RF_f1_6 T1_6 T1_7 1.6534384824964345
RF_f1_7 T1_7 T1_8 2.0158992092751093
RF_f1_8 T1_8 T1_9 1.9750239686656257
RF_f1_9 T1_9 T1_10 1.5897471608318825
RF_f2_0 T2_0 T2_1 1.7545236818721732
RF_f2_1 T2_1 T2_2 1.501074932590763
RF_f2_2 T2_2 T2_3 1.786152498136512
RF_f2_3 T2_3 T2_4 1.6379841353237972
RF_f2_4 T2_4 T2_5 2.0253868484228237
RF_f2_5 T2_5 T2_6 1.7717788724991117
RF_f2_6 T2_6 T2_7 1.8045378422854694
RF_f2_7 T2_7 T2_8 1.8209254961512622
RF_f2_8 T2_8 T2_9 1.4150426753095542
RF_f2_9 T2_9 T2_10 1.9914015667768934
RF_f3_0 T3_0 T3_1 1.4353219800997412
RF_f3_1 T3_1 T3_2 1.4469923016660495
RF_f3_2 T3_2 T3_3 1.5394609351402688
RF_f3_3 T3_3 T3_4 2.0326054266292672
RF_f3_4 T3_4 T3_5 1.7686228561463144
RF_f3_5 T3_5 T3_6 1.996465419498273
RF_f3_6 T3_6 T3_7 1.4380430833767535
RF_f3_7 T3_7 T3_8 1.6969169309544792
RF_f3_8 T3_8 T3_9 1.4048687919630205
RF_f3_9 T3_9 T3_10 1.542578016909221
RF_f4_0 T4_0 T4_1 1.6352110531458863
RF_f4_1 T4_1 T4_2 1.902655098060986
RF_f4_2 T4_2 T4_3 1.4729439660303278
RF_f4_3 T4_3 T4_4 1.8775702428776788
RF_f4_4 T4_4 T4_5 1.5320828790202032
RF_f4_5 T4_5 T4_6 1.7532369656374356
RF_f4_6 T4_6 T4_7 1.891304577486264
RF_f4_7 T4_7 T4_8 2.0067800861116822
RF_f4_8 T4_8 T4_9 1.4167168262326337
RF_f4_9 T4_9 T4_10 1.4853724533295214
RF_f5_0 T5_0 T5_1 1.9225361437781388
RF_f5_1 T5_1 T5_2 1.7755426602425874
RF_f5_2 T5_2 T5_3 1.6793129970672829
RF_f5_3 T5_3 T5_4 1.5619339050196823
RF_f5_4 T5_4 T5_5 1.970689143551768
RF_f5_5 T5_5 T5_6 1.460791815393691
RF_f5_6 T5_6 T5_7 1.7775056746908304
RF_f5_7 T5_7 T5_8 1.7630332623625158
RF_f5_8 T5_8 T5_9 1.5471961774030554
RF_f5_9 T5_9 T5_10 1.8896755918092214
RF_f6_0 T6_0 T6_1 1.4932774670079803
RF_f6_1 T6_1 T6_2 1.9693057817207937
RF_f6_2 T6_2 T6_3 1.479353763309242
RF_f6_3 T6_3 T6_4 2.034396522642428
RF_f6_4 T6_4 T6_5 2.00366661337871
RF_f6_5 T6_5 T6_6 1.7667158787934323
RF_f6_6 T6_6 T6_7 1.6775709984172773
RF_f6_7 T6_7 T6_8 1.972053808847468
RF_f6_8 T6_8 T6_9 1.67731351115157
RF_f6_9 T6_9 T6_10 1.6105129405147975
RF_f7_0 T7_0 T7_1 1.976856406245695
RF_f7_1 T7_1 T7_2 1.5972293479366344
RF_f7_2 T7_2 T7_3 1.6542036523374801
RF_f7_3 T7_3 T7_4 1.8387578547405348
RF_f7_4 T7_4 T7_5 1.7158697898320585
RF_f7_5 T7_5 T7_6 1.7208530641065654
RF_f7_6 T7_6 T7_7 1.7388446095277592
RF_f7_7 T7_7 T7_8 1.927222369600214
RF_f7_8 T7_8 T7_9 1.611543410522483
RF_f7_9 T7_9 T7_10 1.4555202276259473
RF_f8_0 T8_0 T8_1 1.4401959580239436
RF_f8_1 T8_1 T8_2 1.6758040388024367
RF_f8_2 T8_2 T8_3 1.416755670273701
RF_f8_3 T8_3 T8_4 1.7208570564063825
RF_f8_4 T8_4 T8_5 1.8549545950129702
RF_f8_5 T8_5 T8_6 1.715634413231229
RF_f8_6 T8_6 T8_7 1.8681548911828478
RF_f8_7 T8_7 T8_8 1.9195539019390506
RF_f8_8 T8_8 T8_9 1.9265534091273189
RF_f8_9 T8_9 T8_10 1.7669341152146862
RF_f9_0 T9_0 T9_1 2.0528947464739287
RF_f9_1 T9_1 T9_2 1.3964818025612793
RF_f9_2 T9_2 T9_3 1.8359295546491956
RF_f9_3 T9_3 T9_4 2.0040743538748034
RF_f9_4 T9_4 T9_5 1.7112304579852584
RF_f9_5 T9_5 T9_6 2.025215888902941
RF_f9_6 T9_6 T9_7 1.8526782143495961
RF_f9_7 T9_7 T9_8 2.041782193277849
RF_f9_8 T9_8 T9_9 1.4856623341815387
RF_f9_9 T9_9 T9_10 1.6246449845532263
RF_f10_0 T10_0 T10_1 1.5275912948600205
RF_f10_1 T10_1 T10_2 1.6085540522549577
RF_f10_2 T10_2 T10_3 2.0427375952488385
RF_f10_3 T10_3 T10_4 1.8070106171210583
RF_f10_4 T10_4 T10_5 1.4036457324146319
RF_f10_5 T10_5 T10_6 1.6010128656352998
RF_f10_6 T10_6 T10_7 2.0089905722955983
RF_f10_7 T10_7 T10_8 1.9949533883910875
RF_f10_8 T10_8 T10_9 1.948730279175355
RF_f10_9 T10_9 T10_10 1.4894763627949887
RF_f11_0 T11_0 T11_1 1.6904216850618201
RF_f11_1 T11_1 T11_2 1.4706570620346733
RF_f11_2 T11_2 T11_3 1.4837742510650345
RF_f11_3 T11_3 T11_4 1.737507444402419
RF_f11_4 T11_4 T11_5 1.8997095983312824
RF_f11_5 T11_5 T11_6 1.3923154585556055
RF_f11_6 T11_6 T11_7 1.7697493657239458
RF_f11_7 T11_7 T11_8 1.6630773729557953
RF_f11_8 T11_8 T11_9 1.5206607784503374
RF_f11_9 T11_9 T11_10 1.6438685093428398
RF_f12_0 T12_0 T12_1 1.7298906305947699
RF_f12_1 T12_1 T12_2 1.9752835270142244
RF_f12_2 T12_2 T12_3 1.887982280241578
RF_f12_3 T12_3 T12_4 1.5125839308881746
RF_f12_4 T12_4 T12_5 1.974501569796729
RF_f12_5 T12_5 T12_6 1.3881593286963803
RF_f12_6 T12_6 T12_7 1.5216739359583675
RF_f12_7 T12_7 T12_8 1.8377057662755956
RF_f12_8 T12_8 T12_9 1.4198415437519818
RF_f12_9 T12_9 T12_10 1.4035613491223762
RF_f13_0 T13_0 T13_1 1.5577783752378787
RF_f13_1 T13_1 T13_2 1.615245766751888
RF_f13_2 T13_2 T13_3 1.8613473608699338
RF_f13_3 T13_3 T13_4 1.9533226005523727
RF_f13_4 T13_4 T13_5 1.8948743513758597
RF_f13_5 T13_5 T13_6 1.637578366507212
RF_f13_6 T13_6 T13_7 1.5476474225662549
RF_f13_7 T13_7 T13_8 1.5030584316107514
RF_f13_8 T13_8 T13_9 1.671896943459254
RF_f13_9 T13_9 T13_10 1.87745449307533
RF_f14_0 T14_0 T14_1 1.5378108220060216
RF_f14_1 T14_1 T14_2 2.0131503371013886
RF_f14_2 T14_2 T14_3 1.4709904822675497
RF_f14_3 T14_3 T14_4 1.7042527982036901
RF_f14_4 T14_4 T14_5 1.3805120423145685
RF_f14_5 T14_5 T14_6 1.7443522585959428
RF_f14_6 T14_6 T14_7 1.7290073269306465
RF_f14_7 T14_7 T14_8 1.5750390224999762
RF_f14_8 T14_8 T14_9 1.8837152363288792
RF_f14_9 T14_9 T14_10 1.5989942154583556
RF_f15_0 T15_0 T15_1 1.8269712536801306
RF_f15_1 T15_1 T15_2 1.8635987194166077
RF_f15_2 T15_2 T15_3 1.6322291358576426
RF_f15_3 T15_3 T15_4 1.7255219839363989
RF_f15_4 T15_4 T15_5 1.774288684394265
RF_f15_5 T15_5 T15_6 1.9827435396153885
RF_f15_6 T15_6 T15_7 1.7641610065089819
RF_f15_7 T15_7 T15_8 1.9547847215199123
RF_f15_8 T15_8 T15_9 1.8949023653513826
RF_f15_9 T15_9 T15_10 1.6916576865492399
RF_f16_0 T16_0 T16_1 1.5581906443586657
RF_f16_1 T16_1 T16_2 1.4703167357380524
RF_f16_2 T16_2 T16_3 2.010624835441587
RF_f16_3 T16_3 T16_4 1.7960764233427138
RF_f16_4 T16_4 T16_5 1.5816628131754997
RF_f16_5 T16_5 T16_6 1.868310911424228
RF_f16_6 T16_6 T16_7 1.8075572127436814
RF_f16_7 T16_7 T16_8 1.8818559108329003
RF_f16_8 T16_8 T16_9 1.9570002963321556
RF_f16_9 T16_9 T16_10 1.6839386412668786
RF_f17_0 T17_0 T17_1 1.9759562586750257
RF_f17_1 T17_1 T17_2 1.911866641522967
RF_f17_2 T17_2 T17_3 1.9671173641603366
RF_f17_3 T17_3 T17_4 1.7370685909017567
RF_f17_4 T17_4 T17_5 1.7868892422517848
RF_f17_5 T17_5 T17_6 1.9824512688530742
RF_f17_6 T17_6 T17_7 1.721400459570087
RF_f17_7 T17_7 T17_8 1.5545616207671793
RF_f17_8 T17_8 T17_9 1.5861719708220157
RF_f17_9 T17_9 T17_10 1.529153556500566
RF_f18_0 T18_0 T18_1 1.8958522396386246
RF_f18_1 T18_1 T18_2 1.39846212624413
RF_f18_2 T18_2 T18_3 1.796427733902287
RF_f18_3 T18_3 T18_4 1.7842382928616116
RF_f18_4 T18_4 T18_5 1.9616679721720982
RF_f18_5 T18_5 T18_6 2.001305507420631
RF_f18_6 T18_6 T18_7 1.589954183878917
RF_f18_7 T18_7 T18_8 1.726563474458062
RF_f18_8 T18_8 T18_9 2.046478336894319
RF_f18_9 T18_9 T18_10 1.5325481623043862
RF_f19_0 T19_0 T19_1 1.8433212370222747
RF_f19_1 T19_1 T19_2 1.7623245062497463
RF_f19_2 T19_2 T19_3 1.8965257266667206
RF_f19_3 T19_3 T19_4 1.6673808967985293
RF_f19_4 T19_4 T19_5 1.8955370554220707
RF_f19_5 T19_5 T19_6 1.6024925880528451
RF_f19_6 T19_6 T19_7 1.392047388204375
RF_f19_7 T19_7 T19_8 1.3923509336338484
RF_f19_8 T19_8 T19_9 1.448984319949632
RF_f19_9 T19_9 T19_10 1.4365400078283825
RF_f20_0 T20_0 T20_1 1.853113191431223
RF_f20_1 T20_1 T20_2 1.986727934373346
RF_f20_2 T20_2 T20_3 1.6839856647422102
RF_f20_3 T20_3 T20_4 1.4196661544273093
RF_f20_4 T20_4 T20_5 1.540903384767912
RF_f20_5 T20_5 T20_6 1.8355421362845115
RF_f20_6 T20_6 T20_7 1.8794199961404683
RF_f20_7 T20_7 T20_8 1.793505760203229
RF_f20_8 T20_8 T20_9 2.046970908867906
RF_f20_9 T20_9 T20_10 1.9260637455515197
RF_f21_0 T21_0 T21_1 1.3928111074712006
RF_f21_1 T21_1 T21_2 1.4563540564455661
RF_f21_2 T21_2 T21_3 1.5523234366704037
RF_f21_3 T21_3 T21_4 1.5763812516073954
RF_f21_4 T21_4 T21_5 1.474595182087213
RF_f21_5 T21_5 T21_6 2.052049823745042
RF_f21_6 T21_6 T21_7 1.4997884224569031
RF_f21_7 T21_7 T21_8 1.6128212402658637
RF_f21_8 T21_8 T21_9 1.8084823422126708
RF_f21_9 T21_9 T21_10 1.425074358904186
RF_f22_0 T22_0 T22_1 1.4052909833680138
RF_f22_1 T22_1 T22_2 1.4909212054807712
RF_f22_2 T22_2 T22_3 1.6810020500988692
RF_f22_3 T22_3 T22_4 1.8462776978969229
RF_f22_4 T22_4 T22_5 1.869508465403495
RF_f22_5 T22_5 T22_6 1.9173088999132992
RF_f22_6 T22_6 T22_7 1.3979990086556267
RF_f22_7 T22_7 T22_8 1.510670861874289
RF_f22_8 T22_8 T22_9 1.548505082299408
RF_f22_9 T22_9 T22_10 1.4396643821808586
RF_f23_0 T23_0 T23_1 1.7312792063422437
RF_f23_1 T23_1 T23_2 1.6295811080163018
RF_f23_2 T23_2 T23_3 1.4397582750820546
RF_f23_3 T23_3 T23_4 1.7942915592089779
RF_f23_4 T23_4 T23_5 1.391404963870329
RF_f23_5 T23_5 T23_6 1.4801806071766785
RF_f23_6 T23_6 T23_7 1.699524577700934
RF_f23_7 T23_7 T23_8 1.6590304242053664
RF_f23_8 T23_8 T23_9 1.8923343044697185
RF_f23_9 T23_9 T23_10 1.5036800612643726
RF_f24_0 T24_0 T24_1 1.9900271624324923
RF_f24_1 T24_1 T24_2 1.9461388300561868
RF_f24_2 T24_2 T24_3 1.5229769271459963
RF_f24_3 T24_3 T24_4 1.788255428671143
RF_f24_4 T24_4 T24_5 1.6475794625652092
RF_f24_5 T24_5 T24_6 1.8960921147419558
RF_f24_6 T24_6 T24_7 1.4316992987204546
RF_f24_7 T24_7 T24_8 1.4351977658322157
RF_f24_8 T24_8 T24_9 1.7866927707259646
RF_f24_9 T24_9 T24_10 1.4504860490926201
RF_f25_0 T25_0 T25_1 1.889772637784997
RF_f25_1 T25_1 T25_2 1.6924700434702855
RF_f25_2 T25_2 T25_3 1.8171596218647044
RF_f25_3 T25_3 T25_4 1.723466796966849
RF_f25_4 T25_4 T25_5 1.5155731966483448
RF_f25_5 T25_5 T25_6 2.0356869753534266
RF_f25_6 T25_6 T25_7 1.6167148804664866
RF_f25_7 T25_7 T25_8 1.8962570817165003
RF_f25_8 T25_8 T25_9 1.4887341060466457
RF_f25_9 T25_9 T25_10 1.928562044176923
RF_f26_0 T26_0 T26_1 1.4180439988817082
RF_f26_1 T26_1 T26_2 2.021403588799025
RF_f26_2 T26_2 T26_3 1.4104720026076627
RF_f26_3 T26_3 T26_4 1.920572601130397
RF_f26_4 T26_4 T26_5 2.0259161302816473
RF_f26_5 T26_5 T26_6 1.5098523185182147
RF_f26_6 T26_6 T26_7 1.7938270539420043
RF_f26_7 T26_7 T26_8 2.055118719813663
RF_f26_8 T26_8 T26_9 1.832211764100961
RF_f26_9 T26_9 T26_10 1.4364010677238428
RF_f27_0 T27_0 T27_1 2.027769550278302
RF_f27_1 T27_1 T27_2 1.5952597513271607
RF_f27_2 T27_2 T27_3 1.555551967126624
RF_f27_3 T27_3 T27_4 1.929618230793447
RF_f27_4 T27_4 T27_5 1.9582325231549569
RF_f27_5 T27_5 T27_6 1.698661200872716
RF_f27_6 T27_6 T27_7 2.0199996544368144
RF_f27_7 T27_7 T27_8 1.9090794179311654
RF_f27_8 T27_8 T27_9 1.4494470258304526
RF_f27_9 T27_9 T27_10 1.6215937639458435
RF_f28_0 T28_0 T28_1 1.6123762584603387
RF_f28_1 T28_1 T28_2 1.88021386996181
RF_f28_2 T28_2 T28_3 1.3844253657802088
RF_f28_3 T28_3 T28_4 1.4804812823171243
RF_f28_4 T28_4 T28_5 1.4129122342228393
RF_f28_5 T28_5 T28_6 1.7771607472169477
RF_f28_6 T28_6 T28_7 1.4873935453184517
RF_f28_7 T28_7 T28_8 1.6655971896512967
RF_f28_8 T28_8 T28_9 1.3949239467805619
RF_f28_9 T28_9 T28_10 1.6796569078529626
RF_f29_0 T29_0 T29_1 1.7339578861277594
RF_f29_1 T29_1 T29_2 1.997223247363177
RF_f29_2 T29_2 T29_3 1.478685152309624
RF_f29_3 T29_3 T29_4 1.5785160954277582
RF_f29_4 T29_4 T29_5 1.5837998762096392
RF_f29_5 T29_5 T29_6 1.4301731206646733
RF_f29_6 T29_6 T29_7 1.5998180714606738
RF_f29_7 T29_7 T29_8 1.5451276919316275
RF_f29_8 T29_8 T29_9 1.7014312533522693
RF_f29_9 T29_9 T29_10 1.9686045741661888
RF_f30_0 T30_0 T30_1 1.4587419268665183
RF_f30_1 T30_1 T30_2 1.5445325056051904
RF_f30_2 T30_2 T30_3 1.9985053881007087
RF_f30_3 T30_3 T30_4 1.9796602928298497
RF_f30_4 T30_4 T30_5 1.7194857853831251
RF_f30_5 T30_5 T30_6 1.46666300745214
RF_f30_6 T30_6 T30_7 1.5916046790618665
RF_f30_7 T30_7 T30_8 1.376695286630843
RF_f30_8 T30_8 T30_9 1.805815252996551
RF_f30_9 T30_9 T30_10 1.4497656057524395
RF_f31_0 T31_0 T31_1 1.514248527541128
RF_f31_1 T31_1 T31_2 1.8129402417150666
RF_f31_2 T31_2 T31_3 2.016560849603849
RF_f31_3 T31_3 T31_4 1.6557931756441149
RF_f31_4 T31_4 T31_5 1.3997900878265481
RF_f31_5 T31_5 T31_6 1.8154004924940272
RF_f31_6 T31_6 T31_7 1.571441481707109
RF_f31_7 T31_7 T31_8 1.4952551501990639
RF_f31_8 T31_8 T31_9 1.5362006692581056
RF_f31_9 T31_9 T31_10 1.4912092545697058
RF_f32_0 T32_0 T32_1 1.6874462597381588
RF_f32_1 T32_1 T32_2 1.996585981449627
RF_f32_2 T32_2 T32_3 1.5718035634785203
RF_f32_3 T32_3 T32_4 1.915739733335876
RF_f32_4 T32_4 T32_5 2.0554399020706446
RF_f32_5 T32_5 T32_6 1.508725498723838
RF_f32_6 T32_6 T32_7 1.973529133586887
RF_f32_7 T32_7 T32_8 1.8547596055031839
RF_f32_8 T32_8 T32_9 1.7296676346650766
RF_f32_9 T32_9 T32_10 1.4825857864129195
RF_f33_0 T33_0 T33_1 1.7311757351696266
RF_f33_1 T33_1 T33_2 2.042598430335336
RF_f33_2 T33_2 T33_3 1.77809766209724
RF_f33_3 T33_3 T33_4 1.9301269822285843
RF_f33_4 T33_4 T33_5 1.8503252120315303
RF_f33_5 T33_5 T33_6 1.4078282347994968
RF_f33_6 T33_6 T33_7 1.9278904507499244
RF_f33_7 T33_7 T33_8 1.7390316766431355
RF_f33_8 T33_8 T33_9 1.4419607365009979
RF_f33_9 T33_9 T33_10 1.8656162389010529
RF_f34_0 T34_0 T34_1 1.4111080328467216
RF_f34_1 T34_1 T34_2 1.385018714262809
RF_f34_2 T34_2 T34_3 1.6703879535948705
RF_f34_3 T34_3 T34_4 1.703262844526457
RF_f34_4 T34_4 T34_5 1.6073736861330268
RF_f34_5 T34_5 T34_6 2.0305311349488786
RF_f34_6 T34_6 T34_7 2.049389908278483
RF_f34_7 T34_7 T34_8 1.4473395083641092
RF_f34_8 T34_8 T34_9 1.776508453629503
RF_f34_9 T34_9 T34_10 1.85898898019879
RF_f35_0 T35_0 T35_1 1.3918611327831871
RF_f35_1 T35_1 T35_2 1.8642443402313635
RF_f35_2 T35_2 T35_3 2.0136557305553886
RF_f35_3 T35_3 T35_4 1.766289758297781
RF_f35_4 T35_4 T35_5 1.637117539705611
RF_f35_5 T35_5 T35_6 2.0454370142018266
RF_f35_6 T35_6 T35_7 1.6579379254234385
RF_f35_7 T35_7 T35_8 2.0111920606896927
RF_f35_8 T35_8 T35_9 1.5231797654011399
RF_f35_9 T35_9 T35_10 2.0134634789470978
RF_f36_0 T36_0 T36_1 1.4006938124613535
RF_f36_1 T36_1 T36_2 2.0593588526671986
RF_f36_2 T36_2 T36_3 1.3920626362857778
RF_f36_3 T36_3 T36_4 2.0030198010672273
RF_f36_4 T36_4 T36_5 1.444095493347044
RF_f36_5 T36_5 T36_6 1.5249508587476914
RF_f36_6 T36_6 T36_7 1.8543225129075784
RF_f36_7 T36_7 T36_8 1.7297768433231058
RF_f36_8 T36_8 T36_9 1.604597896697294
RF_f36_9 T36_9 T36_10 1.8782378074864323
RF_f37_0 T37_0 T37_1 1.9678652351012431
RF_f37_1 T37_1 T37_2 1.5380892214750974
RF_f37_2 T37_2 T37_3 1.941093054731685
RF_f37_3 T37_3 T37_4 1.78688339690867
RF_f37_4 T37_4 T37_5 1.5702241053096027
RF_f37_5 T37_5 T37_6 1.5807686455717231
RF_f37_6 T37_6 T37_7 1.7913855054781913
RF_f37_7 T37_7 T37_8 1.5171986059907652
RF_f37_8 T37_8 T37_9 1.7823896169845608
RF_f37_9 T37_9 T37_10 1.414255321204384
RF_f38_0 T38_0 T38_1 1.5226191797705404
RF_f38_1 T38_1 T38_2 1.8733139594021644
RF_f38_2 T38_2 T38_3 1.5754084525895595
RF_f38_3 T38_3 T38_4 1.8655795397542307
RF_f38_4 T38_4 T38_5 1.7875171584872702
RF_f38_5 T38_5 T38_6 1.7725001280753423
RF_f38_6 T38_6 T38_7 1.4301716266514826
RF_f38_7 T38_7 T38_8 1.9276825780181328
RF_f38_8 T38_8 T38_9 1.5806623571481504
RF_f38_9 T38_9 T38_10 1.635794080207048
RF_f39_0 T39_0 T39_1 2.025343998921371
RF_f39_1 T39_1 T39_2 1.7673299150837707
RF_f39_2 T39_2 T39_3 1.6639570849507421
RF_f39_3 T39_3 T39_4 2.03182681955026
RF_f39_4 T39_4 T39_5 1.929112958765843
RF_f39_5 T39_5 T39_6 1.4650601287903582
RF_f39_6 T39_6 T39_7 1.4847514539456181
RF_f39_7 T39_7 T39_8 1.895539569716705
RF_f39_8 T39_8 T39_9 1.6870605195695656
RF_f39_9 T39_9 T39_10 1.4398751877712461
RF_f40_0 T40_0 T40_1 1.5779486388831088
RF_f40_1 T40_1 T40_2 1.5678974005657405
RF_f40_2 T40_2 T40_3 1.718913324785393
RF_f40_3 T40_3 T40_4 1.7718470131913686
RF_f40_4 T40_4 T40_5 1.7946146591538152
RF_f40_5 T40_5 T40_6 2.0539462174910077
RF_f40_6 T40_6 T40_7 1.7184566618868682
RF_f40_7 T40_7 T40_8 1.890742789870453
RF_f40_8 T40_8 T40_9 1.9558551190594735
RF_f40_9 T40_9 T40_10 1.8850425259697792
RF_f41_0 T41_0 T41_1 1.8530799921413776
RF_f41_1 T41_1 T41_2 2.0213143451575437
RF_f41_2 T41_2 T41_3 1.9844036909929854
RF_f41_3 T41_3 T41_4 1.682367175111559
RF_f41_4 T41_4 T41_5 1.5646819946255635
RF_f41_5 T41_5 T41_6 1.716669941372265
RF_f41_6 T41_6 T41_7 1.7763021049719394
RF_f41_7 T41_7 T41_8 1.5489323002326052
RF_f41_8 T41_8 T41_9 2.0353123317492785
RF_f41_9 T41_9 T41_10 1.9251495694640446
RF_f42_0 T42_0 T42_1 1.3811068549760335
RF_f42_1 T42_1 T42_2 1.52425512898233
RF_f42_2 T42_2 T42_3 1.91091130827875
RF_f42_3 T42_3 T42_4 1.4299960553093345
RF_f42_4 T42_4 T42_5 2.0542194482278826
RF_f42_5 T42_5 T42_6 1.8298219395011357
RF_f42_6 T42_6 T42_7 1.504484362721823
RF_f42_7 T42_7 T42_8 1.9753631825221813
RF_f42_8 T42_8 T42_9 1.955345633904577
RF_f42_9 T42_9 T42_10 1.7798220315296411
RF_f43_0 T43_0 T43_1 1.9134099025014821
RF_f43_1 T43_1 T43_2 1.5580052886824642
RF_f43_2 T43_2 T43_3 1.5831895855780287
RF_f43_3 T43_3 T43_4 1.464001227008587
RF_f43_4 T43_4 T43_5 1.578151485415818
RF_f43_5 T43_5 T43_6 1.5403709460101729
RF_f43_6 T43_6 T43_7 1.397510580742355
RF_f43_7 T43_7 T43_8 2.0563285658552797
RF_f43_8 T43_8 T43_9 1.5399287451934176
RF_f43_9 T43_9 T43_10 1.9097499490205443
RF_f44_0 T44_0 T44_1 1.8886216409992675
RF_f44_1 T44_1 T44_2 1.8745840434022192
RF_f44_2 T44_2 T44_3 1.4501285191413031
RF_f44_3 T44_3 T44_4 1.3904871238011065
RF_f44_4 T44_4 T44_5 1.516581382236316
RF_f44_5 T44_5 T44_6 1.4108320074932201
RF_f44_6 T44_6 T44_7 1.5461594536958954
RF_f44_7 T44_7 T44_8 1.7858955473182099
RF_f44_8 T44_8 T44_9 1.4560519613552176
RF_f44_9 T44_9 T44_10 1.7508630357861152
RF_f45_0 T45_0 T45_1 1.55056078062364
RF_f45_1 T45_1 T45_2 1.4055388402764823
RF_f45_2 T45_2 T45_3 1.4613123493960185
RF_f45_3 T45_3 T45_4 1.430914313995294
RF_f45_4 T45_4 T45_5 1.4457083706658542
RF_f45_5 T45_5 T45_6 1.7075568821135443
RF_f45_6 T45_6 T45_7 1.6484171537806418
RF_f45_7 T45_7 T45_8 1.5832776085251026
RF_f45_8 T45_8 T45_9 1.775366330045097
RF_f45_9 T45_9 T45_10 1.6715396581109505
RF_f46_0 T46_0 T46_1 2.025491853060857
RF_f46_1 T46_1 T46_2 1.6950883176478202
RF_f46_2 T46_2 T46_3 1.6360928118628275
RF_f46_3 T46_3 T46_4 1.5374815480233301
RF_f46_4 T46_4 T46_5 1.3796824560090843
RF_f46_5 T46_5 T46_6 1.624768021116881
RF_f46_6 T46_6 T46_7 1.4695228267623814
RF_f46_7 T46_7 T46_8 1.945828890033947
RF_f46_8 T46_8 T46_9 1.3979636895823182
RF_f46_9 T46_9 T46_10 1.7422633717114089
RF_f47_0 T47_0 T47_1 1.9844918338557918
RF_f47_1 T47_1 T47_2 1.5133114312231526
RF_f47_2 T47_2 T47_3 2.050726789596342
RF_f47_3 T47_3 T47_4 1.4799336207179836
RF_f47_4 T47_4 T47_5 1.7698390971103826
RF_f47_5 T47_5 T47_6 1.7627240683207996
RF_f47_6 T47_6 T47_7 1.738009701911523
RF_f47_7 T47_7 T47_8 1.991068129168816
RF_f47_8 T47_8 T47_9 1.7611497555976379
RF_f47_9 T47_9 T47_10 1.6469793107315094
RF_f48_0 T48_0 T48_1 1.5815394315741513
RF_f48_1 T48_1 T48_2 1.8544216955344308
RF_f48_2 T48_2 T48_3 1.6874629983124423
RF_f48_3 T48_3 T48_4 1.53188239306698
RF_f48_4 T48_4 T48_5 1.5427097090070019
RF_f48_5 T48_5 T48_6 1.6491673021510893
RF_f48_6 T48_6 T48_7 1.902143523436927
RF_f48_7 T48_7 T48_8 1.468978262440169
RF_f48_8 T48_8 T48_9 1.804779195038314
RF_f48_9 T48_9 T48_10 1.388829549061325
RF_f49_0 T49_0 T49_1 1.6377665358502602
RF_f49_1 T49_1 T49_2 2.0008143324405823
RF_f49_2 T49_2 T49_3 1.929579771121832
RF_f49_3 T49_3 T49_4 1.7251065234694516
RF_f49_4 T49_4 T49_5 1.4357508428135894
RF_f49_5 T49_5 T49_6 1.994388161759525
RF_f49_6 T49_6 T49_7 1.5791881916457795
RF_f49_7 T49_7 T49_8 1.8434811640441857
RF_f49_8 T49_8 T49_9 1.640415120880824
RF_f49_9 T49_9 T49_10 1.5642522628619997
RF_f50_0 T50_0 T50_1 1.8622011427656855
RF_f50_1 T50_1 T50_2 1.546391575343171
RF_f50_2 T50_2 T50_3 1.8921482381409178
RF_f50_3 T50_3 T50_4 1.511201938412387
RF_f50_4 T50_4 T50_5 1.7017299964902175
RF_f50_5 T50_5 T50_6 1.426207203516887
RF_f50_6 T50_6 T50_7 1.57478742941093
RF_f50_7 T50_7 T50_8 1.465888103829647
RF_f50_8 T50_8 T50_9 1.5750880401702503
RF_f50_9 T50_9 T50_10 1.9260844719253627
RF_f51_0 T51_0 T51_1 1.410145260623253
RF_f51_1 T51_1 T51_2 1.6985403432914652
RF_f51_2 T51_2 T51_3 1.8685248708211724
RF_f51_3 T51_3 T51_4 1.7547353466758253
RF_f51_4 T51_4 T51_5 1.774029709698518
RF_f51_5 T51_5 T51_6 1.4700834247355243
RF_f51_6 T51_6 T51_7 1.427817107258088
RF_f51_7 T51_7 T51_8 1.5189644338946493
RF_f51_8 T51_8 T51_9 2.037434770763195
RF_f51_9 T51_9 T51_10 1.8463747679427567
RF_f52_0 T52_0 T52_1 1.8167371738235925
RF_f52_1 T52_1 T52_2 1.6288358932451046
RF_f52_2 T52_2 T52_3 1.916484124248677
RF_f52_3 T52_3 T52_4 2.0181724913516232
RF_f52_4 T52_4 T52_5 1.8795586241181983
RF_f52_5 T52_5 T52_6 1.4154266466414762
RF_f52_6 T52_6 T52_7 1.501181385175025
RF_f52_7 T52_7 T52_8 1.4216245399608427
RF_f52_8 T52_8 T52_9 1.7016448463237832
RF_f52_9 T52_9 T52_10 1.5794255576905225
RF_f53_0 T53_0 T53_1 1.586236155030491
RF_f53_1 T53_1 T53_2 1.8518379243744263
RF_f53_2 T53_2 T53_3 1.6377811797133255
RF_f53_3 T53_3 T53_4 1.5502248018647047
RF_f53_4 T53_4 T53_5 1.8160566870486772
RF_f53_5 T53_5 T53_6 1.4702404601797814
RF_f53_6 T53_6 T53_7 1.987704946344686
RF_f53_7 T53_7 T53_8 2.021239190083653
RF_f53_8 T53_8 T53_9 1.7099368057156352
RF_f53_9 T53_9 T53_10 1.549516431722027
RF_f54_0 T54_0 T54_1 1.6435665491758598
RF_f54_1 T54_1 T54_2 2.0071902667531396
RF_f54_2 T54_2 T54_3 1.633985337198373
RF_f54_3 T54_3 T54_4 1.7645031342875854
RF_f54_4 T54_4 T54_5 1.9645601477879793
RF_f54_5 T54_5 T54_6 1.5667143060886035
RF_f54_6 T54_6 T54_7 1.7796282704870847
RF_f54_7 T54_7 T54_8 1.4871211434450096
RF_f54_8 T54_8 T54_9 1.7446011399741652
RF_f54_9 T54_9 T54_10 1.8306498017937551
RF_f55_0 T55_0 T55_1 1.7877538549410374
RF_f55_1 T55_1 T55_2 1.7025010236517633
RF_f55_2 T55_2 T55_3 1.5517801354629361
RF_f55_3 T55_3 T55_4 1.9515921549111277
RF_f55_4 T55_4 T55_5 2.017313256499912
RF_f55_5 T55_5 T55_6 1.4073569913182582
RF_f55_6 T55_6 T55_7 1.385402334639685
RF_f55_7 T55_7 T55_8 1.9743408694733104
RF_f55_8 T55_8 T55_9 1.827824952104618
RF_f55_9 T55_9 T55_10 2.0212865459217197
RF_f56_0 T56_0 T56_1 1.6224787343612115
RF_f56_1 T56_1 T56_2 1.6148832708007899
RF_f56_2 T56_2 T56_3 1.7803635979994235
RF_f56_3 T56_3 T56_4 1.6429052781142515
RF_f56_4 T56_4 T56_5 1.5767815197873603
RF_f56_5 T56_5 T56_6 1.3805848778325616
RF_f56_6 T56_6 T56_7 1.9399360561235937
RF_f56_7 T56_7 T56_8 1.844598758291196
RF_f56_8 T56_8 T56_9 1.8069716405344518
RF_f56_9 T56_9 T56_10 1.7253081556482568
RF_f57_0 T57_0 T57_1 1.8088049139193998
RF_f57_1 T57_1 T57_2 1.4618092109612295
RF_f57_2 T57_2 T57_3 1.4774870048163375
RF_f57_3 T57_3 T57_4 1.9743049214947768
RF_f57_4 T57_4 T57_5 1.5702191736249087
RF_f57_5 T57_5 T57_6 1.891720580569833
RF_f57_6 T57_6 T57_7 2.0529488333430703
RF_f57_7 T57_7 T57_8 2.020352649667638
RF_f57_8 T57_8 T57_9 1.7974092956099605
RF_f57_9 T57_9 T57_10 1.4887736456021827
RF_f58_0 T58_0 T58_1 1.585534494631491
RF_f58_1 T58_1 T58_2 1.6254329524189848
RF_f58_2 T58_2 T58_3 1.7344915815987498
RF_f58_3 T58_3 T58_4 1.5711273221792272
RF_f58_4 T58_4 T58_5 1.5454746531804324
RF_f58_5 T58_5 T58_6 1.717031638093378
RF_f58_6 T58_6 T58_7 1.5541035561556733
RF_f58_7 T58_7 T58_8 1.5073269835811653
RF_f58_8 T58_8 T58_9 2.015356571350372
RF_f58_9 T58_9 T58_10 1.8340459095989838
RF_f59_0 T59_0 T59_1 1.5562124992251631
RF_f59_1 T59_1 T59_2 1.483238944354611
RF_f59_2 T59_2 T59_3 1.929779731904627
RF_f59_3 T59_3 T59_4 1.787979399415311
RF_f59_4 T59_4 T59_5 1.856798163672282
RF_f59_5 T59_5 T59_6 1.9551531298206193
RF_f59_6 T59_6 T59_7 1.5628712317004498
RF_f59_7 T59_7 T59_8 1.960794927901689
RF_f59_8 T59_8 T59_9 2.058920497448634
RF_f59_9 T59_9 T59_10 1.8415931463614692
RF_f60_0 T60_0 T60_1 1.9168832748509654
RF_f60_1 T60_1 T60_2 1.7343023988373798
RF_f60_2 T60_2 T60_3 1.935872150795871
RF_f60_3 T60_3 T60_4 1.412245131578526
RF_f60_4 T60_4 T60_5 1.3819789882009617
RF_f60_5 T60_5 T60_6 1.5133141770168468
RF_f60_6 T60_6 T60_7 1.7554549420417362
RF_f60_7 T60_7 T60_8 1.7311852208830225
RF_f60_8 T60_8 T60_9 1.6476005234812678
RF_f60_9 T60_9 T60_10 1.824672579529169
RF_f61_0 T61_0 T61_1 1.763988690091622
RF_f61_1 T61_1 T61_2 1.5398602658148723
RF_f61_2 T61_2 T61_3 1.9800976869934526
RF_f61_3 T61_3 T61_4 1.693211823961254
RF_f61_4 T61_4 T61_5 1.7257661687923618
RF_f61_5 T61_5 T61_6 1.8188238910738819
RF_f61_6 T61_6 T61_7 1.9797981370336353
RF_f61_7 T61_7 T61_8 1.430332549418598
RF_f61_8 T61_8 T61_9 1.6597229311686852
RF_f61_9 T61_9 T61_10 1.7035349058682132
RF_f62_0 T62_0 T62_1 2.0259539685923906
RF_f62_1 T62_1 T62_2 1.64718724111456
RF_f62_2 T62_2 T62_3 1.4035925564452343
RF_f62_3 T62_3 T62_4 1.8986484587866927
RF_f62_4 T62_4 T62_5 1.924250521836087
RF_f62_5 T62_5 T62_6 1.45263775874976
RF_f62_6 T62_6 T62_7 1.581911911000931
RF_f62_7 T62_7 T62_8 1.9954515997765707
RF_f62_8 T62_8 T62_9 1.9557957786834237
RF_f62_9 T62_9 T62_10 2.052502742978359
RF_f63_0 T63_0 T63_1 1.6446957924067862
RF_f63_1 T63_1 T63_2 1.9312504645231952
RF_f63_2 T63_2 T63_3 1.6943190225589062
RF_f63_3 T63_3 T63_4 1.431387327635343
RF_f63_4 T63_4 T63_5 2.0526465267207654
RF_f63_5 T63_5 T63_6 1.862436694951082
RF_f63_6 T63_6 T63_7 1.8874506402947215
RF_f63_7 T63_7 T63_8 1.825455680906121
RF_f63_8 T63_8 T63_9 1.6153404617822855
RF_f63_9 T63_9 T63_10 1.3884618225196557
RF_f64_0 T64_0 T64_1 1.7047758316440618
RF_f64_1 T64_1 T64_2 1.4175822428095388
RF_f64_2 T64_2 T64_3 1.99880226386985
RF_f64_3 T64_3 T64_4 1.975352505850906
RF_f64_4 T64_4 T64_5 1.8560610194655398
RF_f64_5 T64_5 T64_6 1.6661140385053423
RF_f64_6 T64_6 T64_7 1.9626408326176206
RF_f64_7 T64_7 T64_8 1.5972735668051143
RF_f64_8 T64_8 T64_9 1.9080838033474876
RF_f64_9 T64_9 T64_10 1.5708707847870507
RF_f65_0 T65_0 T65_1 1.4304347889613336
RF_f65_1 T65_1 T65_2 1.4142405975303802
RF_f65_2 T65_2 T65_3 1.5689969024596986
RF_f65_3 T65_3 T65_4 1.8219959351941748
RF_f65_4 T65_4 T65_5 1.4935760053759437
RF_f65_5 T65_5 T65_6 1.9727622083591743
RF_f65_6 T65_6 T65_7 1.986298172794633
RF_f65_7 T65_7 T65_8 1.616195202191632
RF_f65_8 T65_8 T65_9 1.4341122818879637
RF_f65_9 T65_9 T65_10 2.051486186725125
RF_f66_0 T66_0 T66_1 1.5885814930071673
RF_f66_1 T66_1 T66_2 1.5088104782273253
RF_f66_2 T66_2 T66_3 1.7621295866262952
RF_f66_3 T66_3 T66_4 1.9977684994928895
RF_f66_4 T66_4 T66_5 1.7523272032406587
RF_f66_5 T66_5 T66_6 1.9153098569899625
RF_f66_6 T66_6 T66_7 1.8787748774825834
RF_f66_7 T66_7 T66_8 1.6759691128766039
RF_f66_8 T66_8 T66_9 1.5579285267385747
RF_f66_9 T66_9 T66_10 1.6717557773598286
RF_f67_0 T67_0 T67_1 1.4697172043587525
RF_f67_1 T67_1 T67_2 1.9228589308517172
RF_f67_2 T67_2 T67_3 1.3813925454026872
RF_f67_3 T67_3 T67_4 1.8583036674443827
RF_f67_4 T67_4 T67_5 2.0272620879974164
RF_f67_5 T67_5 T67_6 1.5740020986042524
RF_f67_6 T67_6 T67_7 1.8583618880377695
RF_f67_7 T67_7 T67_8 1.4858961430777509
RF_f67_8 T67_8 T67_9 1.671623116457876
RF_f67_9 T67_9 T67_10 1.998436095899093
RF_f68_0 T68_0 T68_1 1.5128415066943752
RF_f68_1 T68_1 T68_2 1.7338830311781872
RF_f68_2 T68_2 T68_3 1.9917164267979126
RF_f68_3 T68_3 T68_4 1.96612958518215
RF_f68_4 T68_4 T68_5 1.865437320667561
RF_f68_5 T68_5 T68_6 1.988788762741545
RF_f68_6 T68_6 T68_7 1.7129246622395928
RF_f68_7 T68_7 T68_8 2.0210522076237276
RF_f68_8 T68_8 T68_9 1.9207953110395843
RF_f68_9 T68_9 T68_10 1.5225797650913382
RF_f69_0 T69_0 T69_1 1.8755831716180515
RF_f69_1 T69_1 T69_2 1.7341378124857854
RF_f69_2 T69_2 T69_3 1.787635407441361
RF_f69_3 T69_3 T69_4 1.8495609127921222
RF_f69_4 T69_4 T69_5 1.7023186551740164
RF_f69_5 T69_5 T69_6 1.8164006351804745
RF_f69_6 T69_6 T69_7 1.941566690505299
RF_f69_7 T69_7 T69_8 1.7711070317624933
RF_f69_8 T69_8 T69_9 1.8786389368922811
RF_f69_9 T69_9 T69_10 1.717832224156483
RF_f70_0 T70_0 T70_1 1.7084093356070347
RF_f70_1 T70_1 T70_2 1.4340479060529305
RF_f70_2 T70_2 T70_3 1.7645487303546055
RF_f70_3 T70_3 T70_4 1.81693848751212
RF_f70_4 T70_4 T70_5 1.6221459807765595
RF_f70_5 T70_5 T70_6 1.922727248314487
RF_f70_6 T70_6 T70_7 1.6082143812167145
RF_f70_7 T70_7 T70_8 1.602566109666537
RF_f70_8 T70_8 T70_9 1.9429541045508536
RF_f70_9 T70_9 T70_10 1.5209345186014844
RF_f71_0 T71_0 T71_1 1.5542582985199593
RF_f71_1 T71_1 T71_2 1.5687735020866633
RF_f71_2 T71_2 T71_3 1.7243182015553038
RF_f71_3 T71_3 T71_4 1.918768012023489
RF_f71_4 T71_4 T71_5 1.4976453488180625
RF_f71_5 T71_5 T71_6 1.615542498586704
RF_f71_6 T71_6 T71_7 1.766031365273834
RF_f71_7 T71_7 T71_8 1.4395503152515965
RF_f71_8 T71_8 T71_9 1.9439036569973909
RF_f71_9 T71_9 T71_10 1.7919953709116816
RF_f72_0 T72_0 T72_1 1.7711873946879095
RF_f72_1 T72_1 T72_2 1.9205207619178903
RF_f72_2 T72_2 T72_3 1.781493498791558
RF_f72_3 T72_3 T72_4 1.6867497690134095
RF_f72_4 T72_4 T72_5 1.9725978267108086
RF_f72_5 T72_5 T72_6 1.9232344387439217
RF_f72_6 T72_6 T72_7 1.7346895673176315
RF_f72_7 T72_7 T72_8 1.8298961197997092
RF_f72_8 T72_8 T72_9 1.7248031924925868
RF_f72_9 T72_9 T72_10 1.5229113289072698
RF_f73_0 T73_0 T73_1 1.8542867009556616
RF_f73_1 T73_1 T73_2 1.9090175289631297
RF_f73_2 T73_2 T73_3 1.7012529523736974
RF_f73_3 T73_3 T73_4 1.926069285394004
RF_f73_4 T73_4 T73_5 1.9633753109096141
RF_f73_5 T73_5 T73_6 1.4713436263786208
RF_f73_6 T73_6 T73_7 1.489238593704607
RF_f73_7 T73_7 T73_8 1.516650106563762
RF_f73_8 T73_8 T73_9 2.004289796301849
RF_f73_9 T73_9 T73_10 2.038037629367866
RF_f74_0 T74_0 T74_1 1.6660575158670647
RF_f74_1 T74_1 T74_2 1.3824941759018012
RF_f74_2 T74_2 T74_3 1.7003127601725798
RF_f74_3 T74_3 T74_4 1.5833212285064888
RF_f74_4 T74_4 T74_5 1.8956107975925494
RF_f74_5 T74_5 T74_6 1.718133524325712
RF_f74_6 T74_6 T74_7 1.5603813331332737
RF_f74_7 T74_7 T74_8 1.9542399443476661
RF_f74_8 T74_8 T74_9 2.0036775959590885
RF_f74_9 T74_9 T74_10 1.5994286958208366
RF_f75_0 T75_0 T75_1 1.8795567271283646
RF_f75_1 T75_1 T75_2 1.7897147245911376
RF_f75_2 T75_2 T75_3 1.7464706821754885
RF_f75_3 T75_3 T75_4 1.6860083235485162
RF_f75_4 T75_4 T75_5 1.403856247055094
RF_f75_5 T75_5 T75_6 1.8996644409743242
RF_f75_6 T75_6 T75_7 2.0051713667237037
RF_f75_7 T75_7 T75_8 1.381288821302866
RF_f75_8 T75_8 T75_9 1.997280344325815
RF_f75_9 T75_9 T75_10 1.8346866461105305
RF_f76_0 T76_0 T76_1 1.7506347215668816
RF_f76_1 T76_1 T76_2 1.8361742433426378
RF_f76_2 T76_2 T76_3 1.6083375031889227
RF_f76_3 T76_3 T76_4 1.5598137103699636
RF_f76_4 T76_4 T76_5 1.4418991793699463
RF_f76_5 T76_5 T76_6 1.4452703010545722